sisyphean-power-and-light/network/master.dss
! Sisyphean Power & Light Distribution System Model
! Generated from Dynamic Network Model dataset

Clear

! Circuit source at substation bus
New Circuit.SPL bus1=bus_SUB-001 basekV=69 pu=1.00 phases=3 MVAsc3=2000 MVAsc1=2100

! Load network model files
Redirect lines.dss
Redirect transformers.dss
Redirect loads.dss
Redirect capacitors.dss

! Establish voltage bases (must precede coordinate assignment)
Set voltagebases=[69, 12.47, 0.24]
Calcvoltagebases

! Bus coordinates (requires buses to exist)
Redirect coordinates.dss

! Solution parameters
Set tolerance=0.0001
Set maxiterations=100

! Solve initial power flow
Solve
