sisyphean-power-and-light/network/lines.dss
! SP&L Distribution Lines

New LineCode.795_ACSR nphases=3 r1=0.1198 x1=0.355 normamps=700
New LineCode.477_ACSR nphases=3 r1=0.306 x1=0.627 normamps=730
New LineCode.336_ACSR nphases=3 r1=0.306 x1=0.626 normamps=530
New LineCode.#2_ACSR nphases=3 r1=1.69 x1=0.726 normamps=180
New LineCode.#4_CU nphases=3 r1=2.55 x1=0.777 normamps=135
New LineCode.1_0_AL nphases=3 r1=1.12 x1=0.714 normamps=200
New LineCode.4_0_AL nphases=3 r1=0.447 x1=0.647 normamps=340
New LineCode.397p5_AAC nphases=3 r1=0.259 x1=0.612 normamps=590

New Line.line_EDGE-000001 bus1=bus_SUB-001 bus2=bus_FDR-0001-HEAD linecode=795_ACSR length=0.0100 units=mi phases=3
New Line.line_EDGE-000002 bus1=bus_FDR-0001-HEAD bus2=bus_JCT-FDR-0001-001 linecode=795_ACSR length=0.0100 units=mi phases=3
New Line.line_EDGE-000003 bus1=bus_JCT-FDR-0001-001 bus2=bus_FUSE-XFMR-000001 linecode=#2_ACSR length=0.0018 units=mi phases=1
New Line.line_EDGE-000004 bus1=bus_FUSE-XFMR-000001 bus2=bus_XFMR-000001 linecode=#2_ACSR length=0.0102 units=mi phases=1
New Line.line_EDGE-000005 bus1=bus_JCT-FDR-0001-001 bus2=bus_FUSE-XFMR-000002 linecode=1_0_AL length=0.0016 units=mi phases=1
New Line.line_EDGE-000006 bus1=bus_FUSE-XFMR-000002 bus2=bus_XFMR-000002 linecode=1_0_AL length=0.0094 units=mi phases=1
New Line.line_EDGE-000007 bus1=bus_JCT-FDR-0001-001 bus2=bus_FUSE-XFMR-000003 linecode=#4_CU length=0.0027 units=mi phases=1
New Line.line_EDGE-000008 bus1=bus_FUSE-XFMR-000003 bus2=bus_XFMR-000003 linecode=#4_CU length=0.0153 units=mi phases=1
New Line.line_EDGE-000009 bus1=bus_JCT-FDR-0001-001 bus2=bus_FUSE-XFMR-000004 linecode=#2_ACSR length=0.0048 units=mi phases=2
New Line.line_EDGE-000010 bus1=bus_FUSE-XFMR-000004 bus2=bus_XFMR-000004 linecode=#2_ACSR length=0.0272 units=mi phases=2
New Line.line_EDGE-000011 bus1=bus_JCT-FDR-0001-001 bus2=bus_FUSE-XFMR-000005 linecode=#4_CU length=0.0054 units=mi phases=2
New Line.line_EDGE-000012 bus1=bus_FUSE-XFMR-000005 bus2=bus_XFMR-000005 linecode=#4_CU length=0.0306 units=mi phases=2
New Line.line_EDGE-000013 bus1=bus_JCT-FDR-0001-001 bus2=bus_FUSE-XFMR-000006 linecode=4_0_AL length=0.0070 units=mi phases=2
New Line.line_EDGE-000014 bus1=bus_FUSE-XFMR-000006 bus2=bus_XFMR-000006 linecode=4_0_AL length=0.0399 units=mi phases=2
New Line.line_EDGE-000015 bus1=bus_JCT-FDR-0001-001 bus2=bus_FUSE-XFMR-000007 linecode=1_0_AL length=0.0088 units=mi phases=2
New Line.line_EDGE-000016 bus1=bus_FUSE-XFMR-000007 bus2=bus_XFMR-000007 linecode=1_0_AL length=0.0502 units=mi phases=2
New Line.line_EDGE-000017 bus1=bus_JCT-FDR-0001-001 bus2=bus_FUSE-XFMR-000008 linecode=#4_CU length=0.0095 units=mi phases=1
New Line.line_EDGE-000018 bus1=bus_FUSE-XFMR-000008 bus2=bus_XFMR-000008 linecode=#4_CU length=0.0535 units=mi phases=1
New Line.line_EDGE-000019 bus1=bus_JCT-FDR-0001-001 bus2=bus_FUSE-XFMR-000009 linecode=4_0_AL length=0.0108 units=mi phases=3
New Line.line_EDGE-000020 bus1=bus_FUSE-XFMR-000009 bus2=bus_XFMR-000009 linecode=4_0_AL length=0.0612 units=mi phases=3
New Line.line_EDGE-000021 bus1=bus_JCT-FDR-0001-001 bus2=bus_FUSE-XFMR-000010 linecode=4_0_AL length=0.0124 units=mi phases=2
New Line.line_EDGE-000022 bus1=bus_FUSE-XFMR-000010 bus2=bus_XFMR-000010 linecode=4_0_AL length=0.0705 units=mi phases=2
New Line.line_EDGE-000023 bus1=bus_JCT-FDR-0001-001 bus2=bus_FUSE-XFMR-000011 linecode=#2_ACSR length=0.0132 units=mi phases=1
New Line.line_EDGE-000024 bus1=bus_FUSE-XFMR-000011 bus2=bus_XFMR-000011 linecode=#2_ACSR length=0.0748 units=mi phases=1
New Line.line_EDGE-000025 bus1=bus_JCT-FDR-0001-001 bus2=bus_FUSE-XFMR-000012 linecode=#2_ACSR length=0.0148 units=mi phases=1
New Line.line_EDGE-000026 bus1=bus_FUSE-XFMR-000012 bus2=bus_XFMR-000012 linecode=#2_ACSR length=0.0841 units=mi phases=1
New Line.line_EDGE-000027 bus1=bus_JCT-FDR-0001-001 bus2=bus_FUSE-XFMR-000013 linecode=#2_ACSR length=0.0159 units=mi phases=2
New Line.line_EDGE-000028 bus1=bus_FUSE-XFMR-000013 bus2=bus_XFMR-000013 linecode=#2_ACSR length=0.0901 units=mi phases=2
New Line.line_EDGE-000029 bus1=bus_JCT-FDR-0001-001 bus2=bus_FUSE-XFMR-000014 linecode=#4_CU length=0.0174 units=mi phases=2
New Line.line_EDGE-000030 bus1=bus_FUSE-XFMR-000014 bus2=bus_XFMR-000014 linecode=#4_CU length=0.0986 units=mi phases=2
New Line.line_EDGE-000031 bus1=bus_JCT-FDR-0001-001 bus2=bus_FUSE-XFMR-000015 linecode=#2_ACSR length=0.0194 units=mi phases=1
New Line.line_EDGE-000032 bus1=bus_FUSE-XFMR-000015 bus2=bus_XFMR-000015 linecode=#2_ACSR length=0.1097 units=mi phases=1
New Line.line_EDGE-000033 bus1=bus_JCT-FDR-0001-001 bus2=bus_FUSE-XFMR-000016 linecode=#2_ACSR length=0.0209 units=mi phases=2
New Line.line_EDGE-000034 bus1=bus_FUSE-XFMR-000016 bus2=bus_XFMR-000016 linecode=#2_ACSR length=0.1181 units=mi phases=2
New Line.line_EDGE-000035 bus1=bus_JCT-FDR-0001-001 bus2=bus_FUSE-XFMR-000017 linecode=#4_CU length=0.0217 units=mi phases=1
New Line.line_EDGE-000036 bus1=bus_FUSE-XFMR-000017 bus2=bus_XFMR-000017 linecode=#4_CU length=0.1233 units=mi phases=1
New Line.line_EDGE-000037 bus1=bus_JCT-FDR-0001-001 bus2=bus_FUSE-XFMR-000018 linecode=4_0_AL length=0.0233 units=mi phases=1
New Line.line_EDGE-000038 bus1=bus_FUSE-XFMR-000018 bus2=bus_XFMR-000018 linecode=4_0_AL length=0.1317 units=mi phases=1
New Line.line_EDGE-000039 bus1=bus_JCT-FDR-0001-001 bus2=bus_FUSE-XFMR-000019 linecode=4_0_AL length=0.0240 units=mi phases=1
New Line.line_EDGE-000040 bus1=bus_FUSE-XFMR-000019 bus2=bus_XFMR-000019 linecode=4_0_AL length=0.1360 units=mi phases=1
New Line.line_EDGE-000041 bus1=bus_JCT-FDR-0001-001 bus2=bus_FUSE-XFMR-000020 linecode=#2_ACSR length=0.0261 units=mi phases=2
New Line.line_EDGE-000042 bus1=bus_FUSE-XFMR-000020 bus2=bus_XFMR-000020 linecode=#2_ACSR length=0.1479 units=mi phases=2
New Line.line_EDGE-000043 bus1=bus_JCT-FDR-0001-001 bus2=bus_FUSE-XFMR-000021 linecode=1_0_AL length=0.0266 units=mi phases=2
New Line.line_EDGE-000044 bus1=bus_FUSE-XFMR-000021 bus2=bus_XFMR-000021 linecode=1_0_AL length=0.1505 units=mi phases=2
New Line.line_EDGE-000045 bus1=bus_JCT-FDR-0001-001 bus2=bus_FUSE-XFMR-000022 linecode=1_0_AL length=0.0282 units=mi phases=3
New Line.line_EDGE-000046 bus1=bus_FUSE-XFMR-000022 bus2=bus_XFMR-000022 linecode=1_0_AL length=0.1598 units=mi phases=3
New Line.line_EDGE-000047 bus1=bus_JCT-FDR-0001-001 bus2=bus_FUSE-XFMR-000023 linecode=4_0_AL length=0.0294 units=mi phases=1
New Line.line_EDGE-000048 bus1=bus_FUSE-XFMR-000023 bus2=bus_XFMR-000023 linecode=4_0_AL length=0.1666 units=mi phases=1
New Line.line_EDGE-000049 bus1=bus_JCT-FDR-0001-001 bus2=bus_FUSE-XFMR-000024 linecode=1_0_AL length=0.0305 units=mi phases=1
New Line.line_EDGE-000050 bus1=bus_FUSE-XFMR-000024 bus2=bus_XFMR-000024 linecode=1_0_AL length=0.1726 units=mi phases=1
New Line.line_EDGE-000051 bus1=bus_JCT-FDR-0001-001 bus2=bus_FUSE-XFMR-000025 linecode=1_0_AL length=0.0318 units=mi phases=3
New Line.line_EDGE-000052 bus1=bus_FUSE-XFMR-000025 bus2=bus_XFMR-000025 linecode=1_0_AL length=0.1802 units=mi phases=3
New Line.line_EDGE-000053 bus1=bus_JCT-FDR-0001-001 bus2=bus_FUSE-XFMR-000026 linecode=#4_CU length=0.0339 units=mi phases=2
New Line.line_EDGE-000054 bus1=bus_FUSE-XFMR-000026 bus2=bus_XFMR-000026 linecode=#4_CU length=0.1921 units=mi phases=2
New Line.line_EDGE-000055 bus1=bus_JCT-FDR-0001-001 bus2=bus_FUSE-XFMR-000027 linecode=#2_ACSR length=0.0345 units=mi phases=2
New Line.line_EDGE-000056 bus1=bus_FUSE-XFMR-000027 bus2=bus_XFMR-000027 linecode=#2_ACSR length=0.1955 units=mi phases=2
New Line.line_EDGE-000057 bus1=bus_JCT-FDR-0001-001 bus2=bus_FUSE-XFMR-000028 linecode=#2_ACSR length=0.0363 units=mi phases=1
New Line.line_EDGE-000058 bus1=bus_FUSE-XFMR-000028 bus2=bus_XFMR-000028 linecode=#2_ACSR length=0.2057 units=mi phases=1
New Line.line_EDGE-000059 bus1=bus_JCT-FDR-0001-001 bus2=bus_FUSE-XFMR-000029 linecode=#4_CU length=0.0370 units=mi phases=2
New Line.line_EDGE-000060 bus1=bus_FUSE-XFMR-000029 bus2=bus_XFMR-000029 linecode=#4_CU length=0.2099 units=mi phases=2
New Line.line_EDGE-000061 bus1=bus_JCT-FDR-0001-001 bus2=bus_FUSE-XFMR-000030 linecode=4_0_AL length=0.0390 units=mi phases=1
New Line.line_EDGE-000062 bus1=bus_FUSE-XFMR-000030 bus2=bus_XFMR-000030 linecode=4_0_AL length=0.2210 units=mi phases=1
New Line.line_EDGE-000063 bus1=bus_JCT-FDR-0001-001 bus2=bus_FUSE-XFMR-000031 linecode=4_0_AL length=0.0398 units=mi phases=3
New Line.line_EDGE-000064 bus1=bus_FUSE-XFMR-000031 bus2=bus_XFMR-000031 linecode=4_0_AL length=0.2252 units=mi phases=3
New Line.line_EDGE-000065 bus1=bus_JCT-FDR-0001-001 bus2=bus_FUSE-XFMR-000032 linecode=1_0_AL length=0.0414 units=mi phases=2
New Line.line_EDGE-000066 bus1=bus_FUSE-XFMR-000032 bus2=bus_XFMR-000032 linecode=1_0_AL length=0.2346 units=mi phases=2
New Line.line_EDGE-000067 bus1=bus_JCT-FDR-0001-001 bus2=bus_FUSE-XFMR-000033 linecode=#4_CU length=0.0430 units=mi phases=1
New Line.line_EDGE-000068 bus1=bus_FUSE-XFMR-000033 bus2=bus_XFMR-000033 linecode=#4_CU length=0.2440 units=mi phases=1
New Line.line_EDGE-000069 bus1=bus_JCT-FDR-0001-001 bus2=bus_FUSE-XFMR-000034 linecode=#2_ACSR length=0.0441 units=mi phases=1
New Line.line_EDGE-000070 bus1=bus_FUSE-XFMR-000034 bus2=bus_XFMR-000034 linecode=#2_ACSR length=0.2499 units=mi phases=1
New Line.line_EDGE-000071 bus1=bus_JCT-FDR-0001-001 bus2=bus_FUSE-XFMR-000035 linecode=#4_CU length=0.0458 units=mi phases=1
New Line.line_EDGE-000072 bus1=bus_FUSE-XFMR-000035 bus2=bus_XFMR-000035 linecode=#4_CU length=0.2592 units=mi phases=1
New Line.line_EDGE-000073 bus1=bus_JCT-FDR-0001-001 bus2=bus_FUSE-XFMR-000036 linecode=#4_CU length=0.0465 units=mi phases=3
New Line.line_EDGE-000074 bus1=bus_FUSE-XFMR-000036 bus2=bus_XFMR-000036 linecode=#4_CU length=0.2635 units=mi phases=3
New Line.line_EDGE-000075 bus1=bus_JCT-FDR-0001-001 bus2=bus_FUSE-XFMR-000037 linecode=#2_ACSR length=0.0478 units=mi phases=1
New Line.line_EDGE-000076 bus1=bus_FUSE-XFMR-000037 bus2=bus_XFMR-000037 linecode=#2_ACSR length=0.2712 units=mi phases=1
New Line.line_EDGE-000077 bus1=bus_JCT-FDR-0001-001 bus2=bus_FUSE-XFMR-000038 linecode=1_0_AL length=0.0497 units=mi phases=3
New Line.line_EDGE-000078 bus1=bus_FUSE-XFMR-000038 bus2=bus_XFMR-000038 linecode=1_0_AL length=0.2813 units=mi phases=3
New Line.line_EDGE-000079 bus1=bus_JCT-FDR-0001-001 bus2=bus_FUSE-XFMR-000039 linecode=4_0_AL length=0.0510 units=mi phases=2
New Line.line_EDGE-000080 bus1=bus_FUSE-XFMR-000039 bus2=bus_XFMR-000039 linecode=4_0_AL length=0.2890 units=mi phases=2
New Line.line_EDGE-000081 bus1=bus_JCT-FDR-0001-001 bus2=bus_FUSE-XFMR-000040 linecode=#2_ACSR length=0.0527 units=mi phases=1
New Line.line_EDGE-000082 bus1=bus_FUSE-XFMR-000040 bus2=bus_XFMR-000040 linecode=#2_ACSR length=0.2984 units=mi phases=1
New Line.line_EDGE-000083 bus1=bus_JCT-FDR-0001-001 bus2=bus_FUSE-XFMR-000041 linecode=#2_ACSR length=0.0537 units=mi phases=1
New Line.line_EDGE-000084 bus1=bus_FUSE-XFMR-000041 bus2=bus_XFMR-000041 linecode=#2_ACSR length=0.3043 units=mi phases=1
New Line.line_EDGE-000085 bus1=bus_JCT-FDR-0001-001 bus2=bus_FUSE-XFMR-000042 linecode=#2_ACSR length=0.0553 units=mi phases=1
New Line.line_EDGE-000086 bus1=bus_FUSE-XFMR-000042 bus2=bus_XFMR-000042 linecode=#2_ACSR length=0.3137 units=mi phases=1
New Line.line_EDGE-000087 bus1=bus_JCT-FDR-0001-001 bus2=bus_FUSE-XFMR-000043 linecode=#2_ACSR length=0.0559 units=mi phases=2
New Line.line_EDGE-000088 bus1=bus_FUSE-XFMR-000043 bus2=bus_XFMR-000043 linecode=#2_ACSR length=0.3170 units=mi phases=2
New Line.line_EDGE-000089 bus1=bus_JCT-FDR-0001-001 bus2=bus_FUSE-XFMR-000044 linecode=#4_CU length=0.0576 units=mi phases=1
New Line.line_EDGE-000090 bus1=bus_FUSE-XFMR-000044 bus2=bus_XFMR-000044 linecode=#4_CU length=0.3264 units=mi phases=1
New Line.line_EDGE-000091 bus1=bus_JCT-FDR-0001-001 bus2=bus_FUSE-XFMR-000045 linecode=4_0_AL length=0.0591 units=mi phases=2
New Line.line_EDGE-000092 bus1=bus_FUSE-XFMR-000045 bus2=bus_XFMR-000045 linecode=4_0_AL length=0.3349 units=mi phases=2
New Line.line_EDGE-000093 bus1=bus_JCT-FDR-0001-001 bus2=bus_JCT-FDR-0001-002 linecode=795_ACSR length=0.3300 units=mi phases=3
New Line.line_EDGE-000094 bus1=bus_JCT-FDR-0001-002 bus2=bus_FUSE-XFMR-000046 linecode=#2_ACSR length=0.0015 units=mi phases=3
New Line.line_EDGE-000095 bus1=bus_FUSE-XFMR-000046 bus2=bus_XFMR-000046 linecode=#2_ACSR length=0.0085 units=mi phases=3
New Line.line_EDGE-000096 bus1=bus_JCT-FDR-0001-002 bus2=bus_FUSE-XFMR-000047 linecode=#4_CU length=0.0020 units=mi phases=3
New Line.line_EDGE-000097 bus1=bus_FUSE-XFMR-000047 bus2=bus_XFMR-000047 linecode=#4_CU length=0.0110 units=mi phases=3
New Line.line_EDGE-000098 bus1=bus_JCT-FDR-0001-002 bus2=bus_FUSE-XFMR-000048 linecode=1_0_AL length=0.0038 units=mi phases=1
New Line.line_EDGE-000099 bus1=bus_FUSE-XFMR-000048 bus2=bus_XFMR-000048 linecode=1_0_AL length=0.0213 units=mi phases=1
New Line.line_EDGE-000100 bus1=bus_JCT-FDR-0001-002 bus2=bus_FUSE-XFMR-000049 linecode=1_0_AL length=0.0044 units=mi phases=1
New Line.line_EDGE-000101 bus1=bus_FUSE-XFMR-000049 bus2=bus_XFMR-000049 linecode=1_0_AL length=0.0247 units=mi phases=1
New Line.line_EDGE-000102 bus1=bus_JCT-FDR-0001-002 bus2=bus_FUSE-XFMR-000050 linecode=#2_ACSR length=0.0065 units=mi phases=3
New Line.line_EDGE-000103 bus1=bus_FUSE-XFMR-000050 bus2=bus_XFMR-000050 linecode=#2_ACSR length=0.0366 units=mi phases=3
New Line.line_EDGE-000104 bus1=bus_JCT-FDR-0001-002 bus2=bus_FUSE-XFMR-000051 linecode=4_0_AL length=0.0075 units=mi phases=2
New Line.line_EDGE-000105 bus1=bus_FUSE-XFMR-000051 bus2=bus_XFMR-000051 linecode=4_0_AL length=0.0425 units=mi phases=2
New Line.line_EDGE-000106 bus1=bus_JCT-FDR-0001-002 bus2=bus_FUSE-XFMR-000052 linecode=#4_CU length=0.0087 units=mi phases=2
New Line.line_EDGE-000107 bus1=bus_FUSE-XFMR-000052 bus2=bus_XFMR-000052 linecode=#4_CU length=0.0493 units=mi phases=2
New Line.line_EDGE-000108 bus1=bus_JCT-FDR-0001-002 bus2=bus_FUSE-XFMR-000053 linecode=#2_ACSR length=0.0093 units=mi phases=2
New Line.line_EDGE-000109 bus1=bus_FUSE-XFMR-000053 bus2=bus_XFMR-000053 linecode=#2_ACSR length=0.0527 units=mi phases=2
New Line.line_EDGE-000110 bus1=bus_JCT-FDR-0001-002 bus2=bus_FUSE-XFMR-000054 linecode=4_0_AL length=0.0112 units=mi phases=2
New Line.line_EDGE-000111 bus1=bus_FUSE-XFMR-000054 bus2=bus_XFMR-000054 linecode=4_0_AL length=0.0638 units=mi phases=2
New Line.line_EDGE-000112 bus1=bus_JCT-FDR-0001-002 bus2=bus_FUSE-XFMR-000055 linecode=1_0_AL length=0.0129 units=mi phases=2
New Line.line_EDGE-000113 bus1=bus_FUSE-XFMR-000055 bus2=bus_XFMR-000055 linecode=1_0_AL length=0.0731 units=mi phases=2
New Line.line_EDGE-000114 bus1=bus_JCT-FDR-0001-002 bus2=bus_FUSE-XFMR-000056 linecode=#2_ACSR length=0.0138 units=mi phases=3
New Line.line_EDGE-000115 bus1=bus_FUSE-XFMR-000056 bus2=bus_XFMR-000056 linecode=#2_ACSR length=0.0782 units=mi phases=3
New Line.line_EDGE-000116 bus1=bus_JCT-FDR-0001-002 bus2=bus_FUSE-XFMR-000057 linecode=1_0_AL length=0.0150 units=mi phases=2
New Line.line_EDGE-000117 bus1=bus_FUSE-XFMR-000057 bus2=bus_XFMR-000057 linecode=1_0_AL length=0.0850 units=mi phases=2
New Line.line_EDGE-000118 bus1=bus_JCT-FDR-0001-002 bus2=bus_FUSE-XFMR-000058 linecode=1_0_AL length=0.0165 units=mi phases=2
New Line.line_EDGE-000119 bus1=bus_FUSE-XFMR-000058 bus2=bus_XFMR-000058 linecode=1_0_AL length=0.0935 units=mi phases=2
New Line.line_EDGE-000120 bus1=bus_JCT-FDR-0001-002 bus2=bus_FUSE-XFMR-000059 linecode=#4_CU length=0.0180 units=mi phases=1
New Line.line_EDGE-000121 bus1=bus_FUSE-XFMR-000059 bus2=bus_XFMR-000059 linecode=#4_CU length=0.1020 units=mi phases=1
New Line.line_EDGE-000122 bus1=bus_JCT-FDR-0001-002 bus2=bus_FUSE-XFMR-000060 linecode=#2_ACSR length=0.0187 units=mi phases=1
New Line.line_EDGE-000123 bus1=bus_FUSE-XFMR-000060 bus2=bus_XFMR-000060 linecode=#2_ACSR length=0.1062 units=mi phases=1
New Line.line_EDGE-000124 bus1=bus_JCT-FDR-0001-002 bus2=bus_FUSE-XFMR-000061 linecode=4_0_AL length=0.0199 units=mi phases=1
New Line.line_EDGE-000125 bus1=bus_FUSE-XFMR-000061 bus2=bus_XFMR-000061 linecode=4_0_AL length=0.1130 units=mi phases=1
New Line.line_EDGE-000126 bus1=bus_JCT-FDR-0001-002 bus2=bus_FUSE-XFMR-000062 linecode=#4_CU length=0.0220 units=mi phases=3
New Line.line_EDGE-000127 bus1=bus_FUSE-XFMR-000062 bus2=bus_XFMR-000062 linecode=#4_CU length=0.1249 units=mi phases=3
New Line.line_EDGE-000128 bus1=bus_JCT-FDR-0001-002 bus2=bus_FUSE-XFMR-000063 linecode=4_0_AL length=0.0228 units=mi phases=3
New Line.line_EDGE-000129 bus1=bus_FUSE-XFMR-000063 bus2=bus_XFMR-000063 linecode=4_0_AL length=0.1292 units=mi phases=3
New Line.line_EDGE-000130 bus1=bus_JCT-FDR-0001-002 bus2=bus_FUSE-XFMR-000064 linecode=1_0_AL length=0.0246 units=mi phases=2
New Line.line_EDGE-000131 bus1=bus_FUSE-XFMR-000064 bus2=bus_XFMR-000064 linecode=1_0_AL length=0.1394 units=mi phases=2
New Line.line_EDGE-000132 bus1=bus_JCT-FDR-0001-002 bus2=bus_FUSE-XFMR-000065 linecode=1_0_AL length=0.0253 units=mi phases=1
New Line.line_EDGE-000133 bus1=bus_FUSE-XFMR-000065 bus2=bus_XFMR-000065 linecode=1_0_AL length=0.1437 units=mi phases=1
New Line.line_EDGE-000134 bus1=bus_JCT-FDR-0001-002 bus2=bus_FUSE-XFMR-000066 linecode=#2_ACSR length=0.0272 units=mi phases=1
New Line.line_EDGE-000135 bus1=bus_FUSE-XFMR-000066 bus2=bus_XFMR-000066 linecode=#2_ACSR length=0.1538 units=mi phases=1
New Line.line_EDGE-000136 bus1=bus_JCT-FDR-0001-002 bus2=bus_FUSE-XFMR-000067 linecode=#4_CU length=0.0279 units=mi phases=1
New Line.line_EDGE-000137 bus1=bus_FUSE-XFMR-000067 bus2=bus_XFMR-000067 linecode=#4_CU length=0.1581 units=mi phases=1
New Line.line_EDGE-000138 bus1=bus_JCT-FDR-0001-002 bus2=bus_FUSE-XFMR-000068 linecode=4_0_AL length=0.0298 units=mi phases=2
New Line.line_EDGE-000139 bus1=bus_FUSE-XFMR-000068 bus2=bus_XFMR-000068 linecode=4_0_AL length=0.1691 units=mi phases=2
New Line.line_EDGE-000140 bus1=bus_JCT-FDR-0001-002 bus2=bus_FUSE-XFMR-000069 linecode=#4_CU length=0.0310 units=mi phases=1
New Line.line_EDGE-000141 bus1=bus_FUSE-XFMR-000069 bus2=bus_XFMR-000069 linecode=#4_CU length=0.1759 units=mi phases=1
New Line.line_EDGE-000142 bus1=bus_JCT-FDR-0001-002 bus2=bus_FUSE-XFMR-000070 linecode=#4_CU length=0.0323 units=mi phases=1
New Line.line_EDGE-000143 bus1=bus_FUSE-XFMR-000070 bus2=bus_XFMR-000070 linecode=#4_CU length=0.1827 units=mi phases=1
New Line.line_EDGE-000144 bus1=bus_JCT-FDR-0001-002 bus2=bus_FUSE-XFMR-000071 linecode=4_0_AL length=0.0339 units=mi phases=3
New Line.line_EDGE-000145 bus1=bus_FUSE-XFMR-000071 bus2=bus_XFMR-000071 linecode=4_0_AL length=0.1921 units=mi phases=3
New Line.line_EDGE-000146 bus1=bus_JCT-FDR-0001-002 bus2=bus_FUSE-XFMR-000072 linecode=#2_ACSR length=0.0349 units=mi phases=1
New Line.line_EDGE-000147 bus1=bus_FUSE-XFMR-000072 bus2=bus_XFMR-000072 linecode=#2_ACSR length=0.1980 units=mi phases=1
New Line.line_EDGE-000148 bus1=bus_JCT-FDR-0001-002 bus2=bus_FUSE-XFMR-000073 linecode=1_0_AL length=0.0363 units=mi phases=2
New Line.line_EDGE-000149 bus1=bus_FUSE-XFMR-000073 bus2=bus_XFMR-000073 linecode=1_0_AL length=0.2057 units=mi phases=2
New Line.line_EDGE-000150 bus1=bus_JCT-FDR-0001-002 bus2=bus_FUSE-XFMR-000074 linecode=#4_CU length=0.0381 units=mi phases=2
New Line.line_EDGE-000151 bus1=bus_FUSE-XFMR-000074 bus2=bus_XFMR-000074 linecode=#4_CU length=0.2159 units=mi phases=2
New Line.line_EDGE-000152 bus1=bus_JCT-FDR-0001-002 bus2=bus_FUSE-XFMR-000075 linecode=1_0_AL length=0.0390 units=mi phases=3
New Line.line_EDGE-000153 bus1=bus_FUSE-XFMR-000075 bus2=bus_XFMR-000075 linecode=1_0_AL length=0.2210 units=mi phases=3
New Line.line_EDGE-000154 bus1=bus_JCT-FDR-0001-002 bus2=bus_FUSE-XFMR-000076 linecode=#2_ACSR length=0.0399 units=mi phases=2
New Line.line_EDGE-000155 bus1=bus_FUSE-XFMR-000076 bus2=bus_XFMR-000076 linecode=#2_ACSR length=0.2261 units=mi phases=2
New Line.line_EDGE-000156 bus1=bus_JCT-FDR-0001-002 bus2=bus_FUSE-XFMR-000077 linecode=#2_ACSR length=0.0419 units=mi phases=1
New Line.line_EDGE-000157 bus1=bus_FUSE-XFMR-000077 bus2=bus_XFMR-000077 linecode=#2_ACSR length=0.2372 units=mi phases=1
New Line.line_EDGE-000158 bus1=bus_JCT-FDR-0001-002 bus2=bus_FUSE-XFMR-000078 linecode=#2_ACSR length=0.0429 units=mi phases=1
New Line.line_EDGE-000159 bus1=bus_FUSE-XFMR-000078 bus2=bus_XFMR-000078 linecode=#2_ACSR length=0.2431 units=mi phases=1
New Line.line_EDGE-000160 bus1=bus_JCT-FDR-0001-002 bus2=bus_FUSE-XFMR-000079 linecode=#4_CU length=0.0447 units=mi phases=1
New Line.line_EDGE-000161 bus1=bus_FUSE-XFMR-000079 bus2=bus_XFMR-000079 linecode=#4_CU length=0.2533 units=mi phases=1
New Line.line_EDGE-000162 bus1=bus_JCT-FDR-0001-002 bus2=bus_FUSE-XFMR-000080 linecode=#2_ACSR length=0.0456 units=mi phases=2
New Line.line_EDGE-000163 bus1=bus_FUSE-XFMR-000080 bus2=bus_XFMR-000080 linecode=#2_ACSR length=0.2584 units=mi phases=2
New Line.line_EDGE-000164 bus1=bus_JCT-FDR-0001-002 bus2=bus_FUSE-XFMR-000081 linecode=#4_CU length=0.0474 units=mi phases=1
New Line.line_EDGE-000165 bus1=bus_FUSE-XFMR-000081 bus2=bus_XFMR-000081 linecode=#4_CU length=0.2686 units=mi phases=1
New Line.line_EDGE-000166 bus1=bus_JCT-FDR-0001-002 bus2=bus_FUSE-XFMR-000082 linecode=#4_CU length=0.0487 units=mi phases=1
New Line.line_EDGE-000167 bus1=bus_FUSE-XFMR-000082 bus2=bus_XFMR-000082 linecode=#4_CU length=0.2762 units=mi phases=1
New Line.line_EDGE-000168 bus1=bus_JCT-FDR-0001-002 bus2=bus_FUSE-XFMR-000083 linecode=#4_CU length=0.0492 units=mi phases=2
New Line.line_EDGE-000169 bus1=bus_FUSE-XFMR-000083 bus2=bus_XFMR-000083 linecode=#4_CU length=0.2788 units=mi phases=2
New Line.line_EDGE-000170 bus1=bus_JCT-FDR-0001-002 bus2=bus_FUSE-XFMR-000084 linecode=4_0_AL length=0.0507 units=mi phases=3
New Line.line_EDGE-000171 bus1=bus_FUSE-XFMR-000084 bus2=bus_XFMR-000084 linecode=4_0_AL length=0.2873 units=mi phases=3
New Line.line_EDGE-000172 bus1=bus_JCT-FDR-0001-002 bus2=bus_FUSE-XFMR-000085 linecode=4_0_AL length=0.0527 units=mi phases=1
New Line.line_EDGE-000173 bus1=bus_FUSE-XFMR-000085 bus2=bus_XFMR-000085 linecode=4_0_AL length=0.2984 units=mi phases=1
New Line.line_EDGE-000174 bus1=bus_JCT-FDR-0001-002 bus2=bus_FUSE-XFMR-000086 linecode=#2_ACSR length=0.0541 units=mi phases=2
New Line.line_EDGE-000175 bus1=bus_FUSE-XFMR-000086 bus2=bus_XFMR-000086 linecode=#2_ACSR length=0.3069 units=mi phases=2
New Line.line_EDGE-000176 bus1=bus_JCT-FDR-0001-002 bus2=bus_FUSE-XFMR-000087 linecode=#2_ACSR length=0.0551 units=mi phases=2
New Line.line_EDGE-000177 bus1=bus_FUSE-XFMR-000087 bus2=bus_XFMR-000087 linecode=#2_ACSR length=0.3120 units=mi phases=2
New Line.line_EDGE-000178 bus1=bus_JCT-FDR-0001-002 bus2=bus_FUSE-XFMR-000088 linecode=1_0_AL length=0.0564 units=mi phases=1
New Line.line_EDGE-000179 bus1=bus_FUSE-XFMR-000088 bus2=bus_XFMR-000088 linecode=1_0_AL length=0.3196 units=mi phases=1
New Line.line_EDGE-000180 bus1=bus_JCT-FDR-0001-002 bus2=bus_FUSE-XFMR-000089 linecode=1_0_AL length=0.0579 units=mi phases=2
New Line.line_EDGE-000181 bus1=bus_FUSE-XFMR-000089 bus2=bus_XFMR-000089 linecode=1_0_AL length=0.3281 units=mi phases=2
New Line.line_EDGE-000182 bus1=bus_JCT-FDR-0001-002 bus2=bus_FUSE-XFMR-000090 linecode=4_0_AL length=0.0594 units=mi phases=3
New Line.line_EDGE-000183 bus1=bus_FUSE-XFMR-000090 bus2=bus_XFMR-000090 linecode=4_0_AL length=0.3366 units=mi phases=3
New Line.line_EDGE-000184 bus1=bus_JCT-FDR-0001-002 bus2=bus_JCT-FDR-0001-003 linecode=795_ACSR length=0.3300 units=mi phases=3
New Line.line_EDGE-000185 bus1=bus_JCT-FDR-0001-003 bus2=bus_FUSE-XFMR-000091 linecode=#2_ACSR length=0.0006 units=mi phases=2
New Line.line_EDGE-000186 bus1=bus_FUSE-XFMR-000091 bus2=bus_XFMR-000091 linecode=#2_ACSR length=0.0034 units=mi phases=2
New Line.line_EDGE-000187 bus1=bus_JCT-FDR-0001-003 bus2=bus_FUSE-XFMR-000092 linecode=1_0_AL length=0.0020 units=mi phases=3
New Line.line_EDGE-000188 bus1=bus_FUSE-XFMR-000092 bus2=bus_XFMR-000092 linecode=1_0_AL length=0.0110 units=mi phases=3
New Line.line_EDGE-000189 bus1=bus_JCT-FDR-0001-003 bus2=bus_FUSE-XFMR-000093 linecode=4_0_AL length=0.0031 units=mi phases=2
New Line.line_EDGE-000190 bus1=bus_FUSE-XFMR-000093 bus2=bus_XFMR-000093 linecode=4_0_AL length=0.0178 units=mi phases=2
New Line.line_EDGE-000191 bus1=bus_JCT-FDR-0001-003 bus2=bus_FUSE-XFMR-000094 linecode=1_0_AL length=0.0041 units=mi phases=1
New Line.line_EDGE-000192 bus1=bus_FUSE-XFMR-000094 bus2=bus_XFMR-000094 linecode=1_0_AL length=0.0230 units=mi phases=1
New Line.line_EDGE-000193 bus1=bus_JCT-FDR-0001-003 bus2=bus_FUSE-XFMR-000095 linecode=1_0_AL length=0.0059 units=mi phases=2
New Line.line_EDGE-000194 bus1=bus_FUSE-XFMR-000095 bus2=bus_XFMR-000095 linecode=1_0_AL length=0.0331 units=mi phases=2
New Line.line_EDGE-000195 bus1=bus_JCT-FDR-0001-003 bus2=bus_FUSE-XFMR-000096 linecode=#4_CU length=0.0069 units=mi phases=1
New Line.line_EDGE-000196 bus1=bus_FUSE-XFMR-000096 bus2=bus_XFMR-000096 linecode=#4_CU length=0.0391 units=mi phases=1
New Line.line_EDGE-000197 bus1=bus_JCT-FDR-0001-003 bus2=bus_FUSE-XFMR-000097 linecode=4_0_AL length=0.0084 units=mi phases=3
New Line.line_EDGE-000198 bus1=bus_FUSE-XFMR-000097 bus2=bus_XFMR-000097 linecode=4_0_AL length=0.0476 units=mi phases=3
New Line.line_EDGE-000199 bus1=bus_JCT-FDR-0001-003 bus2=bus_FUSE-XFMR-000098 linecode=#4_CU length=0.0090 units=mi phases=1
New Line.line_EDGE-000200 bus1=bus_FUSE-XFMR-000098 bus2=bus_XFMR-000098 linecode=#4_CU length=0.0510 units=mi phases=1
...
