sisyphean-power-and-light/network/transformers.dss
! Distribution Transformers

New Transformer.XFMR-021038 phases=1 windings=2 buses=[bus_601 bus_601_sec] conns=[wye wye] kvs=[12.47 0.24] kvas=[50.0 50.0] %imped=2.5
New Transformer.XFMR-010291 phases=1 windings=2 buses=[bus_36 bus_36_sec] conns=[wye wye] kvs=[12.47 0.24] kvas=[37.5 37.5] %imped=2.5
New Transformer.XFMR-032086 phases=1 windings=2 buses=[bus_105 bus_105_sec] conns=[wye wye] kvs=[12.47 0.24] kvas=[167.0 167.0] %imped=2.5
New Transformer.XFMR-022874 phases=1 windings=2 buses=[bus_676 bus_676_sec] conns=[wye wye] kvs=[12.47 0.24] kvas=[15.0 15.0] %imped=2.5
New Transformer.XFMR-018274 phases=1 windings=2 buses=[bus_919 bus_919_sec] conns=[wye wye] kvs=[12.47 0.24] kvas=[75.0 75.0] %imped=2.5
New Transformer.XFMR-026454 phases=1 windings=2 buses=[bus_752 bus_752_sec] conns=[wye wye] kvs=[12.47 0.24] kvas=[500.0 500.0] %imped=2.5
New Transformer.XFMR-023624 phases=1 windings=2 buses=[bus_403 bus_403_sec] conns=[wye wye] kvs=[12.47 0.24] kvas=[75.0 75.0] %imped=2.5
New Transformer.XFMR-014955 phases=1 windings=2 buses=[bus_251 bus_251_sec] conns=[wye wye] kvs=[12.47 0.24] kvas=[100.0 100.0] %imped=2.5
New Transformer.XFMR-016167 phases=1 windings=2 buses=[bus_518 bus_518_sec] conns=[wye wye] kvs=[12.47 0.24] kvas=[15.0 15.0] %imped=2.5
New Transformer.XFMR-016797 phases=1 windings=2 buses=[bus_524 bus_524_sec] conns=[wye wye] kvs=[12.47 0.24] kvas=[15.0 15.0] %imped=2.5
New Transformer.XFMR-022809 phases=1 windings=2 buses=[bus_734 bus_734_sec] conns=[wye wye] kvs=[12.47 0.24] kvas=[500.0 500.0] %imped=2.5
New Transformer.XFMR-007469 phases=1 windings=2 buses=[bus_351 bus_351_sec] conns=[wye wye] kvs=[12.47 0.24] kvas=[333.0 333.0] %imped=2.5
New Transformer.XFMR-028044 phases=1 windings=2 buses=[bus_686 bus_686_sec] conns=[wye wye] kvs=[12.47 0.24] kvas=[500.0 500.0] %imped=2.5
New Transformer.XFMR-003129 phases=1 windings=2 buses=[bus_752 bus_752_sec] conns=[wye wye] kvs=[12.47 0.24] kvas=[25.0 25.0] %imped=2.5
New Transformer.XFMR-020153 phases=1 windings=2 buses=[bus_141 bus_141_sec] conns=[wye wye] kvs=[12.47 0.24] kvas=[37.5 37.5] %imped=2.5
New Transformer.XFMR-034110 phases=1 windings=2 buses=[bus_100 bus_100_sec] conns=[wye wye] kvs=[12.47 0.24] kvas=[75.0 75.0] %imped=2.5
New Transformer.XFMR-011568 phases=1 windings=2 buses=[bus_608 bus_608_sec] conns=[wye wye] kvs=[12.47 0.24] kvas=[333.0 333.0] %imped=2.5
New Transformer.XFMR-002953 phases=1 windings=2 buses=[bus_745 bus_745_sec] conns=[wye wye] kvs=[12.47 0.24] kvas=[10.0 10.0] %imped=2.5
New Transformer.XFMR-023414 phases=1 windings=2 buses=[bus_5 bus_5_sec] conns=[wye wye] kvs=[12.47 0.24] kvas=[100.0 100.0] %imped=2.5
New Transformer.XFMR-024826 phases=1 windings=2 buses=[bus_756 bus_756_sec] conns=[wye wye] kvs=[12.47 0.24] kvas=[15.0 15.0] %imped=2.5
New Transformer.XFMR-014147 phases=1 windings=2 buses=[bus_727 bus_727_sec] conns=[wye wye] kvs=[12.47 0.24] kvas=[10.0 10.0] %imped=2.5
New Transformer.XFMR-022760 phases=1 windings=2 buses=[bus_387 bus_387_sec] conns=[wye wye] kvs=[12.47 0.24] kvas=[100.0 100.0] %imped=2.5
New Transformer.XFMR-035620 phases=1 windings=2 buses=[bus_26 bus_26_sec] conns=[wye wye] kvs=[12.47 0.24] kvas=[500.0 500.0] %imped=2.5
New Transformer.XFMR-005947 phases=1 windings=2 buses=[bus_431 bus_431_sec] conns=[wye wye] kvs=[12.47 0.24] kvas=[37.5 37.5] %imped=2.5
New Transformer.XFMR-035596 phases=1 windings=2 buses=[bus_975 bus_975_sec] conns=[wye wye] kvs=[12.47 0.24] kvas=[100.0 100.0] %imped=2.5
New Transformer.XFMR-035475 phases=1 windings=2 buses=[bus_333 bus_333_sec] conns=[wye wye] kvs=[12.47 0.24] kvas=[100.0 100.0] %imped=2.5
New Transformer.XFMR-011070 phases=1 windings=2 buses=[bus_175 bus_175_sec] conns=[wye wye] kvs=[12.47 0.24] kvas=[15.0 15.0] %imped=2.5
New Transformer.XFMR-036414 phases=1 windings=2 buses=[bus_269 bus_269_sec] conns=[wye wye] kvs=[12.47 0.24] kvas=[167.0 167.0] %imped=2.5
New Transformer.XFMR-024156 phases=1 windings=2 buses=[bus_434 bus_434_sec] conns=[wye wye] kvs=[12.47 0.24] kvas=[75.0 75.0] %imped=2.5
New Transformer.XFMR-021659 phases=1 windings=2 buses=[bus_422 bus_422_sec] conns=[wye wye] kvs=[12.47 0.24] kvas=[333.0 333.0] %imped=2.5
New Transformer.XFMR-017640 phases=1 windings=2 buses=[bus_748 bus_748_sec] conns=[wye wye] kvs=[12.47 0.24] kvas=[50.0 50.0] %imped=2.5
New Transformer.XFMR-010476 phases=1 windings=2 buses=[bus_682 bus_682_sec] conns=[wye wye] kvs=[12.47 0.24] kvas=[333.0 333.0] %imped=2.5
New Transformer.XFMR-033824 phases=1 windings=2 buses=[bus_227 bus_227_sec] conns=[wye wye] kvs=[12.47 0.24] kvas=[37.5 37.5] %imped=2.5
New Transformer.XFMR-022237 phases=1 windings=2 buses=[bus_560 bus_560_sec] conns=[wye wye] kvs=[12.47 0.24] kvas=[75.0 75.0] %imped=2.5
New Transformer.XFMR-027032 phases=1 windings=2 buses=[bus_657 bus_657_sec] conns=[wye wye] kvs=[12.47 0.24] kvas=[333.0 333.0] %imped=2.5
New Transformer.XFMR-001733 phases=1 windings=2 buses=[bus_234 bus_234_sec] conns=[wye wye] kvs=[12.47 0.24] kvas=[333.0 333.0] %imped=2.5
New Transformer.XFMR-007267 phases=1 windings=2 buses=[bus_478 bus_478_sec] conns=[wye wye] kvs=[12.47 0.24] kvas=[50.0 50.0] %imped=2.5
New Transformer.XFMR-011205 phases=1 windings=2 buses=[bus_587 bus_587_sec] conns=[wye wye] kvs=[12.47 0.24] kvas=[75.0 75.0] %imped=2.5
New Transformer.XFMR-033309 phases=1 windings=2 buses=[bus_277 bus_277_sec] conns=[wye wye] kvs=[12.47 0.24] kvas=[500.0 500.0] %imped=2.5
New Transformer.XFMR-032023 phases=1 windings=2 buses=[bus_480 bus_480_sec] conns=[wye wye] kvs=[12.47 0.24] kvas=[37.5 37.5] %imped=2.5
New Transformer.XFMR-004507 phases=1 windings=2 buses=[bus_133 bus_133_sec] conns=[wye wye] kvs=[12.47 0.24] kvas=[500.0 500.0] %imped=2.5
New Transformer.XFMR-018720 phases=1 windings=2 buses=[bus_425 bus_425_sec] conns=[wye wye] kvs=[12.47 0.24] kvas=[250.0 250.0] %imped=2.5
New Transformer.XFMR-005926 phases=1 windings=2 buses=[bus_845 bus_845_sec] conns=[wye wye] kvs=[12.47 0.24] kvas=[10.0 10.0] %imped=2.5
New Transformer.XFMR-004406 phases=1 windings=2 buses=[bus_996 bus_996_sec] conns=[wye wye] kvs=[12.47 0.24] kvas=[15.0 15.0] %imped=2.5
New Transformer.XFMR-017269 phases=1 windings=2 buses=[bus_735 bus_735_sec] conns=[wye wye] kvs=[12.47 0.24] kvas=[500.0 500.0] %imped=2.5
New Transformer.XFMR-008283 phases=1 windings=2 buses=[bus_747 bus_747_sec] conns=[wye wye] kvs=[12.47 0.24] kvas=[75.0 75.0] %imped=2.5
New Transformer.XFMR-010521 phases=1 windings=2 buses=[bus_264 bus_264_sec] conns=[wye wye] kvs=[12.47 0.24] kvas=[75.0 75.0] %imped=2.5
New Transformer.XFMR-033981 phases=1 windings=2 buses=[bus_823 bus_823_sec] conns=[wye wye] kvs=[12.47 0.24] kvas=[75.0 75.0] %imped=2.5
New Transformer.XFMR-000005 phases=1 windings=2 buses=[bus_541 bus_541_sec] conns=[wye wye] kvs=[12.47 0.24] kvas=[167.0 167.0] %imped=2.5
New Transformer.XFMR-024696 phases=1 windings=2 buses=[bus_278 bus_278_sec] conns=[wye wye] kvs=[12.47 0.24] kvas=[25.0 25.0] %imped=2.5
New Transformer.XFMR-003887 phases=1 windings=2 buses=[bus_538 bus_538_sec] conns=[wye wye] kvs=[12.47 0.24] kvas=[50.0 50.0] %imped=2.5
New Transformer.XFMR-015643 phases=1 windings=2 buses=[bus_719 bus_719_sec] conns=[wye wye] kvs=[12.47 0.24] kvas=[25.0 25.0] %imped=2.5
New Transformer.XFMR-021965 phases=1 windings=2 buses=[bus_832 bus_832_sec] conns=[wye wye] kvs=[12.47 0.24] kvas=[500.0 500.0] %imped=2.5
New Transformer.XFMR-002880 phases=1 windings=2 buses=[bus_546 bus_546_sec] conns=[wye wye] kvs=[12.47 0.24] kvas=[75.0 75.0] %imped=2.5
New Transformer.XFMR-017453 phases=1 windings=2 buses=[bus_721 bus_721_sec] conns=[wye wye] kvs=[12.47 0.24] kvas=[25.0 25.0] %imped=2.5
New Transformer.XFMR-005228 phases=1 windings=2 buses=[bus_951 bus_951_sec] conns=[wye wye] kvs=[12.47 0.24] kvas=[167.0 167.0] %imped=2.5
New Transformer.XFMR-002030 phases=1 windings=2 buses=[bus_161 bus_161_sec] conns=[wye wye] kvs=[12.47 0.24] kvas=[333.0 333.0] %imped=2.5
New Transformer.XFMR-034599 phases=1 windings=2 buses=[bus_511 bus_511_sec] conns=[wye wye] kvs=[12.47 0.24] kvas=[50.0 50.0] %imped=2.5
New Transformer.XFMR-007540 phases=1 windings=2 buses=[bus_461 bus_461_sec] conns=[wye wye] kvs=[12.47 0.24] kvas=[50.0 50.0] %imped=2.5
New Transformer.XFMR-019411 phases=1 windings=2 buses=[bus_278 bus_278_sec] conns=[wye wye] kvs=[12.47 0.24] kvas=[100.0 100.0] %imped=2.5
New Transformer.XFMR-035801 phases=1 windings=2 buses=[bus_379 bus_379_sec] conns=[wye wye] kvs=[12.47 0.24] kvas=[500.0 500.0] %imped=2.5
New Transformer.XFMR-030546 phases=1 windings=2 buses=[bus_10 bus_10_sec] conns=[wye wye] kvs=[12.47 0.24] kvas=[167.0 167.0] %imped=2.5
New Transformer.XFMR-003943 phases=1 windings=2 buses=[bus_576 bus_576_sec] conns=[wye wye] kvs=[12.47 0.24] kvas=[10.0 10.0] %imped=2.5
New Transformer.XFMR-015298 phases=1 windings=2 buses=[bus_170 bus_170_sec] conns=[wye wye] kvs=[12.47 0.24] kvas=[25.0 25.0] %imped=2.5
New Transformer.XFMR-002343 phases=1 windings=2 buses=[bus_358 bus_358_sec] conns=[wye wye] kvs=[12.47 0.24] kvas=[50.0 50.0] %imped=2.5
New Transformer.XFMR-029444 phases=1 windings=2 buses=[bus_767 bus_767_sec] conns=[wye wye] kvs=[12.47 0.24] kvas=[100.0 100.0] %imped=2.5
New Transformer.XFMR-012559 phases=1 windings=2 buses=[bus_932 bus_932_sec] conns=[wye wye] kvs=[12.47 0.24] kvas=[37.5 37.5] %imped=2.5
New Transformer.XFMR-005695 phases=1 windings=2 buses=[bus_474 bus_474_sec] conns=[wye wye] kvs=[12.47 0.24] kvas=[100.0 100.0] %imped=2.5
New Transformer.XFMR-017912 phases=1 windings=2 buses=[bus_437 bus_437_sec] conns=[wye wye] kvs=[12.47 0.24] kvas=[100.0 100.0] %imped=2.5
New Transformer.XFMR-018765 phases=1 windings=2 buses=[bus_860 bus_860_sec] conns=[wye wye] kvs=[12.47 0.24] kvas=[250.0 250.0] %imped=2.5
New Transformer.XFMR-035916 phases=1 windings=2 buses=[bus_95 bus_95_sec] conns=[wye wye] kvs=[12.47 0.24] kvas=[37.5 37.5] %imped=2.5
New Transformer.XFMR-000844 phases=1 windings=2 buses=[bus_349 bus_349_sec] conns=[wye wye] kvs=[12.47 0.24] kvas=[333.0 333.0] %imped=2.5
New Transformer.XFMR-013193 phases=1 windings=2 buses=[bus_353 bus_353_sec] conns=[wye wye] kvs=[12.47 0.24] kvas=[167.0 167.0] %imped=2.5
New Transformer.XFMR-005758 phases=1 windings=2 buses=[bus_142 bus_142_sec] conns=[wye wye] kvs=[12.47 0.24] kvas=[25.0 25.0] %imped=2.5
New Transformer.XFMR-014303 phases=1 windings=2 buses=[bus_287 bus_287_sec] conns=[wye wye] kvs=[12.47 0.24] kvas=[333.0 333.0] %imped=2.5
New Transformer.XFMR-033876 phases=1 windings=2 buses=[bus_584 bus_584_sec] conns=[wye wye] kvs=[12.47 0.24] kvas=[25.0 25.0] %imped=2.5
New Transformer.XFMR-009302 phases=1 windings=2 buses=[bus_562 bus_562_sec] conns=[wye wye] kvs=[12.47 0.24] kvas=[250.0 250.0] %imped=2.5
New Transformer.XFMR-002291 phases=1 windings=2 buses=[bus_738 bus_738_sec] conns=[wye wye] kvs=[12.47 0.24] kvas=[10.0 10.0] %imped=2.5
New Transformer.XFMR-027102 phases=1 windings=2 buses=[bus_702 bus_702_sec] conns=[wye wye] kvs=[12.47 0.24] kvas=[75.0 75.0] %imped=2.5
New Transformer.XFMR-006150 phases=1 windings=2 buses=[bus_485 bus_485_sec] conns=[wye wye] kvs=[12.47 0.24] kvas=[75.0 75.0] %imped=2.5
New Transformer.XFMR-022431 phases=1 windings=2 buses=[bus_768 bus_768_sec] conns=[wye wye] kvs=[12.47 0.24] kvas=[333.0 333.0] %imped=2.5
New Transformer.XFMR-030054 phases=1 windings=2 buses=[bus_359 bus_359_sec] conns=[wye wye] kvs=[12.47 0.24] kvas=[167.0 167.0] %imped=2.5
New Transformer.XFMR-011661 phases=1 windings=2 buses=[bus_107 bus_107_sec] conns=[wye wye] kvs=[12.47 0.24] kvas=[333.0 333.0] %imped=2.5
New Transformer.XFMR-023007 phases=1 windings=2 buses=[bus_396 bus_396_sec] conns=[wye wye] kvs=[12.47 0.24] kvas=[15.0 15.0] %imped=2.5
New Transformer.XFMR-006396 phases=1 windings=2 buses=[bus_740 bus_740_sec] conns=[wye wye] kvs=[12.47 0.24] kvas=[10.0 10.0] %imped=2.5
New Transformer.XFMR-013650 phases=1 windings=2 buses=[bus_312 bus_312_sec] conns=[wye wye] kvs=[12.47 0.24] kvas=[333.0 333.0] %imped=2.5
New Transformer.XFMR-014704 phases=1 windings=2 buses=[bus_350 bus_350_sec] conns=[wye wye] kvs=[12.47 0.24] kvas=[10.0 10.0] %imped=2.5
New Transformer.XFMR-031360 phases=1 windings=2 buses=[bus_92 bus_92_sec] conns=[wye wye] kvs=[12.47 0.24] kvas=[333.0 333.0] %imped=2.5
New Transformer.XFMR-001554 phases=1 windings=2 buses=[bus_910 bus_910_sec] conns=[wye wye] kvs=[12.47 0.24] kvas=[37.5 37.5] %imped=2.5
New Transformer.XFMR-003955 phases=1 windings=2 buses=[bus_708 bus_708_sec] conns=[wye wye] kvs=[12.47 0.24] kvas=[25.0 25.0] %imped=2.5
New Transformer.XFMR-017704 phases=1 windings=2 buses=[bus_309 bus_309_sec] conns=[wye wye] kvs=[12.47 0.24] kvas=[333.0 333.0] %imped=2.5
New Transformer.XFMR-017433 phases=1 windings=2 buses=[bus_368 bus_368_sec] conns=[wye wye] kvs=[12.47 0.24] kvas=[10.0 10.0] %imped=2.5
New Transformer.XFMR-018405 phases=1 windings=2 buses=[bus_545 bus_545_sec] conns=[wye wye] kvs=[12.47 0.24] kvas=[167.0 167.0] %imped=2.5
New Transformer.XFMR-025949 phases=1 windings=2 buses=[bus_783 bus_783_sec] conns=[wye wye] kvs=[12.47 0.24] kvas=[37.5 37.5] %imped=2.5
New Transformer.XFMR-021405 phases=1 windings=2 buses=[bus_284 bus_284_sec] conns=[wye wye] kvs=[12.47 0.24] kvas=[500.0 500.0] %imped=2.5
New Transformer.XFMR-022304 phases=1 windings=2 buses=[bus_784 bus_784_sec] conns=[wye wye] kvs=[12.47 0.24] kvas=[167.0 167.0] %imped=2.5
New Transformer.XFMR-021916 phases=1 windings=2 buses=[bus_901 bus_901_sec] conns=[wye wye] kvs=[12.47 0.24] kvas=[25.0 25.0] %imped=2.5
New Transformer.XFMR-029858 phases=1 windings=2 buses=[bus_361 bus_361_sec] conns=[wye wye] kvs=[12.47 0.24] kvas=[15.0 15.0] %imped=2.5
New Transformer.XFMR-025897 phases=1 windings=2 buses=[bus_322 bus_322_sec] conns=[wye wye] kvs=[12.47 0.24] kvas=[25.0 25.0] %imped=2.5
New Transformer.XFMR-008410 phases=1 windings=2 buses=[bus_174 bus_174_sec] conns=[wye wye] kvs=[12.47 0.24] kvas=[250.0 250.0] %imped=2.5
New Transformer.XFMR-031646 phases=1 windings=2 buses=[bus_663 bus_663_sec] conns=[wye wye] kvs=[12.47 0.24] kvas=[10.0 10.0] %imped=2.5
New Transformer.XFMR-020931 phases=1 windings=2 buses=[bus_710 bus_710_sec] conns=[wye wye] kvs=[12.47 0.24] kvas=[50.0 50.0] %imped=2.5
New Transformer.XFMR-005220 phases=1 windings=2 buses=[bus_944 bus_944_sec] conns=[wye wye] kvs=[12.47 0.24] kvas=[333.0 333.0] %imped=2.5
New Transformer.XFMR-031022 phases=1 windings=2 buses=[bus_459 bus_459_sec] conns=[wye wye] kvs=[12.47 0.24] kvas=[37.5 37.5] %imped=2.5
New Transformer.XFMR-002555 phases=1 windings=2 buses=[bus_502 bus_502_sec] conns=[wye wye] kvs=[12.47 0.24] kvas=[75.0 75.0] %imped=2.5
New Transformer.XFMR-015032 phases=1 windings=2 buses=[bus_100 bus_100_sec] conns=[wye wye] kvs=[12.47 0.24] kvas=[333.0 333.0] %imped=2.5
New Transformer.XFMR-024378 phases=1 windings=2 buses=[bus_67 bus_67_sec] conns=[wye wye] kvs=[12.47 0.24] kvas=[25.0 25.0] %imped=2.5
New Transformer.XFMR-022334 phases=1 windings=2 buses=[bus_954 bus_954_sec] conns=[wye wye] kvs=[12.47 0.24] kvas=[15.0 15.0] %imped=2.5
New Transformer.XFMR-035157 phases=1 windings=2 buses=[bus_784 bus_784_sec] conns=[wye wye] kvs=[12.47 0.24] kvas=[500.0 500.0] %imped=2.5
New Transformer.XFMR-000880 phases=1 windings=2 buses=[bus_56 bus_56_sec] conns=[wye wye] kvs=[12.47 0.24] kvas=[15.0 15.0] %imped=2.5
New Transformer.XFMR-030165 phases=1 windings=2 buses=[bus_288 bus_288_sec] conns=[wye wye] kvs=[12.47 0.24] kvas=[333.0 333.0] %imped=2.5
New Transformer.XFMR-035322 phases=1 windings=2 buses=[bus_417 bus_417_sec] conns=[wye wye] kvs=[12.47 0.24] kvas=[75.0 75.0] %imped=2.5
New Transformer.XFMR-027021 phases=1 windings=2 buses=[bus_360 bus_360_sec] conns=[wye wye] kvs=[12.47 0.24] kvas=[100.0 100.0] %imped=2.5
New Transformer.XFMR-006866 phases=1 windings=2 buses=[bus_253 bus_253_sec] conns=[wye wye] kvs=[12.47 0.24] kvas=[167.0 167.0] %imped=2.5
New Transformer.XFMR-022042 phases=1 windings=2 buses=[bus_711 bus_711_sec] conns=[wye wye] kvs=[12.47 0.24] kvas=[37.5 37.5] %imped=2.5
New Transformer.XFMR-034112 phases=1 windings=2 buses=[bus_57 bus_57_sec] conns=[wye wye] kvs=[12.47 0.24] kvas=[15.0 15.0] %imped=2.5
New Transformer.XFMR-006047 phases=1 windings=2 buses=[bus_822 bus_822_sec] conns=[wye wye] kvs=[12.47 0.24] kvas=[25.0 25.0] %imped=2.5
New Transformer.XFMR-027634 phases=1 windings=2 buses=[bus_329 bus_329_sec] conns=[wye wye] kvs=[12.47 0.24] kvas=[25.0 25.0] %imped=2.5
New Transformer.XFMR-011765 phases=1 windings=2 buses=[bus_966 bus_966_sec] conns=[wye wye] kvs=[12.47 0.24] kvas=[333.0 333.0] %imped=2.5
New Transformer.XFMR-006833 phases=1 windings=2 buses=[bus_307 bus_307_sec] conns=[wye wye] kvs=[12.47 0.24] kvas=[10.0 10.0] %imped=2.5
New Transformer.XFMR-020131 phases=1 windings=2 buses=[bus_606 bus_606_sec] conns=[wye wye] kvs=[12.47 0.24] kvas=[10.0 10.0] %imped=2.5
New Transformer.XFMR-033228 phases=1 windings=2 buses=[bus_213 bus_213_sec] conns=[wye wye] kvs=[12.47 0.24] kvas=[500.0 500.0] %imped=2.5
New Transformer.XFMR-034286 phases=1 windings=2 buses=[bus_486 bus_486_sec] conns=[wye wye] kvs=[12.47 0.24] kvas=[100.0 100.0] %imped=2.5
New Transformer.XFMR-019103 phases=1 windings=2 buses=[bus_728 bus_728_sec] conns=[wye wye] kvs=[12.47 0.24] kvas=[100.0 100.0] %imped=2.5
New Transformer.XFMR-028876 phases=1 windings=2 buses=[bus_316 bus_316_sec] conns=[wye wye] kvs=[12.47 0.24] kvas=[15.0 15.0] %imped=2.5
New Transformer.XFMR-000609 phases=1 windings=2 buses=[bus_53 bus_53_sec] conns=[wye wye] kvs=[12.47 0.24] kvas=[37.5 37.5] %imped=2.5
New Transformer.XFMR-015956 phases=1 windings=2 buses=[bus_435 bus_435_sec] conns=[wye wye] kvs=[12.47 0.24] kvas=[50.0 50.0] %imped=2.5
New Transformer.XFMR-018023 phases=1 windings=2 buses=[bus_386 bus_386_sec] conns=[wye wye] kvs=[12.47 0.24] kvas=[37.5 37.5] %imped=2.5
New Transformer.XFMR-006232 phases=1 windings=2 buses=[bus_279 bus_279_sec] conns=[wye wye] kvs=[12.47 0.24] kvas=[500.0 500.0] %imped=2.5
New Transformer.XFMR-003932 phases=1 windings=2 buses=[bus_785 bus_785_sec] conns=[wye wye] kvs=[12.47 0.24] kvas=[167.0 167.0] %imped=2.5
New Transformer.XFMR-009976 phases=1 windings=2 buses=[bus_971 bus_971_sec] conns=[wye wye] kvs=[12.47 0.24] kvas=[100.0 100.0] %imped=2.5
New Transformer.XFMR-034287 phases=1 windings=2 buses=[bus_367 bus_367_sec] conns=[wye wye] kvs=[12.47 0.24] kvas=[10.0 10.0] %imped=2.5
New Transformer.XFMR-005101 phases=1 windings=2 buses=[bus_421 bus_421_sec] conns=[wye wye] kvs=[12.47 0.24] kvas=[333.0 333.0] %imped=2.5
New Transformer.XFMR-012695 phases=1 windings=2 buses=[bus_321 bus_321_sec] conns=[wye wye] kvs=[12.47 0.24] kvas=[15.0 15.0] %imped=2.5
New Transformer.XFMR-004230 phases=1 windings=2 buses=[bus_407 bus_407_sec] conns=[wye wye] kvs=[12.47 0.24] kvas=[100.0 100.0] %imped=2.5
New Transformer.XFMR-011809 phases=1 windings=2 buses=[bus_875 bus_875_sec] conns=[wye wye] kvs=[12.47 0.24] kvas=[333.0 333.0] %imped=2.5
New Transformer.XFMR-024483 phases=1 windings=2 buses=[bus_535 bus_535_sec] conns=[wye wye] kvs=[12.47 0.24] kvas=[100.0 100.0] %imped=2.5
New Transformer.XFMR-029679 phases=1 windings=2 buses=[bus_118 bus_118_sec] conns=[wye wye] kvs=[12.47 0.24] kvas=[10.0 10.0] %imped=2.5
New Transformer.XFMR-018400 phases=1 windings=2 buses=[bus_423 bus_423_sec] conns=[wye wye] kvs=[12.47 0.24] kvas=[75.0 75.0] %imped=2.5
New Transformer.XFMR-015433 phases=1 windings=2 buses=[bus_880 bus_880_sec] conns=[wye wye] kvs=[12.47 0.24] kvas=[25.0 25.0] %imped=2.5
New Transformer.XFMR-006419 phases=1 windings=2 buses=[bus_199 bus_199_sec] conns=[wye wye] kvs=[12.47 0.24] kvas=[25.0 25.0] %imped=2.5
New Transformer.XFMR-035226 phases=1 windings=2 buses=[bus_799 bus_799_sec] conns=[wye wye] kvs=[12.47 0.24] kvas=[250.0 250.0] %imped=2.5
New Transformer.XFMR-031081 phases=1 windings=2 buses=[bus_46 bus_46_sec] conns=[wye wye] kvs=[12.47 0.24] kvas=[333.0 333.0] %imped=2.5
New Transformer.XFMR-033431 phases=1 windings=2 buses=[bus_687 bus_687_sec] conns=[wye wye] kvs=[12.47 0.24] kvas=[500.0 500.0] %imped=2.5
New Transformer.XFMR-021667 phases=1 windings=2 buses=[bus_733 bus_733_sec] conns=[wye wye] kvs=[12.47 0.24] kvas=[250.0 250.0] %imped=2.5
New Transformer.XFMR-027009 phases=1 windings=2 buses=[bus_26 bus_26_sec] conns=[wye wye] kvs=[12.47 0.24] kvas=[15.0 15.0] %imped=2.5
New Transformer.XFMR-018146 phases=1 windings=2 buses=[bus_611 bus_611_sec] conns=[wye wye] kvs=[12.47 0.24] kvas=[500.0 500.0] %imped=2.5
New Transformer.XFMR-012762 phases=1 windings=2 buses=[bus_609 bus_609_sec] conns=[wye wye] kvs=[12.47 0.24] kvas=[333.0 333.0] %imped=2.5
New Transformer.XFMR-014845 phases=1 windings=2 buses=[bus_796 bus_796_sec] conns=[wye wye] kvs=[12.47 0.24] kvas=[250.0 250.0] %imped=2.5
New Transformer.XFMR-015844 phases=1 windings=2 buses=[bus_342 bus_342_sec] conns=[wye wye] kvs=[12.47 0.24] kvas=[50.0 50.0] %imped=2.5
New Transformer.XFMR-002309 phases=1 windings=2 buses=[bus_968 bus_968_sec] conns=[wye wye] kvs=[12.47 0.24] kvas=[333.0 333.0] %imped=2.5
New Transformer.XFMR-009732 phases=1 windings=2 buses=[bus_575 bus_575_sec] conns=[wye wye] kvs=[12.47 0.24] kvas=[15.0 15.0] %imped=2.5
New Transformer.XFMR-002859 phases=1 windings=2 buses=[bus_272 bus_272_sec] conns=[wye wye] kvs=[12.47 0.24] kvas=[167.0 167.0] %imped=2.5
New Transformer.XFMR-036570 phases=1 windings=2 buses=[bus_339 bus_339_sec] conns=[wye wye] kvs=[12.47 0.24] kvas=[167.0 167.0] %imped=2.5
New Transformer.XFMR-001711 phases=1 windings=2 buses=[bus_914 bus_914_sec] conns=[wye wye] kvs=[12.47 0.24] kvas=[250.0 250.0] %imped=2.5
New Transformer.XFMR-006317 phases=1 windings=2 buses=[bus_407 bus_407_sec] conns=[wye wye] kvs=[12.47 0.24] kvas=[250.0 250.0] %imped=2.5
New Transformer.XFMR-023746 phases=1 windings=2 buses=[bus_896 bus_896_sec] conns=[wye wye] kvs=[12.47 0.24] kvas=[10.0 10.0] %imped=2.5
New Transformer.XFMR-020959 phases=1 windings=2 buses=[bus_509 bus_509_sec] conns=[wye wye] kvs=[12.47 0.24] kvas=[37.5 37.5] %imped=2.5
New Transformer.XFMR-019327 phases=1 windings=2 buses=[bus_296 bus_296_sec] conns=[wye wye] kvs=[12.47 0.24] kvas=[333.0 333.0] %imped=2.5
New Transformer.XFMR-003075 phases=1 windings=2 buses=[bus_238 bus_238_sec] conns=[wye wye] kvs=[12.47 0.24] kvas=[100.0 100.0] %imped=2.5
New Transformer.XFMR-000960 phases=1 windings=2 buses=[bus_21 bus_21_sec] conns=[wye wye] kvs=[12.47 0.24] kvas=[15.0 15.0] %imped=2.5
New Transformer.XFMR-024031 phases=1 windings=2 buses=[bus_937 bus_937_sec] conns=[wye wye] kvs=[12.47 0.24] kvas=[100.0 100.0] %imped=2.5
New Transformer.XFMR-002465 phases=1 windings=2 buses=[bus_270 bus_270_sec] conns=[wye wye] kvs=[12.47 0.24] kvas=[333.0 333.0] %imped=2.5
New Transformer.XFMR-019082 phases=1 windings=2 buses=[bus_11 bus_11_sec] conns=[wye wye] kvs=[12.47 0.24] kvas=[25.0 25.0] %imped=2.5
New Transformer.XFMR-021787 phases=1 windings=2 buses=[bus_146 bus_146_sec] conns=[wye wye] kvs=[12.47 0.24] kvas=[100.0 100.0] %imped=2.5
New Transformer.XFMR-035890 phases=1 windings=2 buses=[bus_463 bus_463_sec] conns=[wye wye] kvs=[12.47 0.24] kvas=[500.0 500.0] %imped=2.5
New Transformer.XFMR-027148 phases=1 windings=2 buses=[bus_494 bus_494_sec] conns=[wye wye] kvs=[12.47 0.24] kvas=[25.0 25.0] %imped=2.5
New Transformer.XFMR-023726 phases=1 windings=2 buses=[bus_352 bus_352_sec] conns=[wye wye] kvs=[12.47 0.24] kvas=[167.0 167.0] %imped=2.5
New Transformer.XFMR-014153 phases=1 windings=2 buses=[bus_514 bus_514_sec] conns=[wye wye] kvs=[12.47 0.24] kvas=[15.0 15.0] %imped=2.5
New Transformer.XFMR-001577 phases=1 windings=2 buses=[bus_216 bus_216_sec] conns=[wye wye] kvs=[12.47 0.24] kvas=[250.0 250.0] %imped=2.5
New Transformer.XFMR-012207 phases=1 windings=2 buses=[bus_921 bus_921_sec] conns=[wye wye] kvs=[12.47 0.24] kvas=[333.0 333.0] %imped=2.5
New Transformer.XFMR-020873 phases=1 windings=2 buses=[bus_879 bus_879_sec] conns=[wye wye] kvs=[12.47 0.24] kvas=[50.0 50.0] %imped=2.5
New Transformer.XFMR-028789 phases=1 windings=2 buses=[bus_846 bus_846_sec] conns=[wye wye] kvs=[12.47 0.24] kvas=[500.0 500.0] %imped=2.5
New Transformer.XFMR-024602 phases=1 windings=2 buses=[bus_809 bus_809_sec] conns=[wye wye] kvs=[12.47 0.24] kvas=[75.0 75.0] %imped=2.5
New Transformer.XFMR-001458 phases=1 windings=2 buses=[bus_826 bus_826_sec] conns=[wye wye] kvs=[12.47 0.24] kvas=[10.0 10.0] %imped=2.5
New Transformer.XFMR-030125 phases=1 windings=2 buses=[bus_317 bus_317_sec] conns=[wye wye] kvs=[12.47 0.24] kvas=[333.0 333.0] %imped=2.5
New Transformer.XFMR-027884 phases=1 windings=2 buses=[bus_3 bus_3_sec] conns=[wye wye] kvs=[12.47 0.24] kvas=[50.0 50.0] %imped=2.5
New Transformer.XFMR-034278 phases=1 windings=2 buses=[bus_92 bus_92_sec] conns=[wye wye] kvs=[12.47 0.24] kvas=[100.0 100.0] %imped=2.5
New Transformer.XFMR-013500 phases=1 windings=2 buses=[bus_750 bus_750_sec] conns=[wye wye] kvs=[12.47 0.24] kvas=[333.0 333.0] %imped=2.5
New Transformer.XFMR-010183 phases=1 windings=2 buses=[bus_963 bus_963_sec] conns=[wye wye] kvs=[12.47 0.24] kvas=[100.0 100.0] %imped=2.5
New Transformer.XFMR-019499 phases=1 windings=2 buses=[bus_647 bus_647_sec] conns=[wye wye] kvs=[12.47 0.24] kvas=[100.0 100.0] %imped=2.5
New Transformer.XFMR-012541 phases=1 windings=2 buses=[bus_750 bus_750_sec] conns=[wye wye] kvs=[12.47 0.24] kvas=[75.0 75.0] %imped=2.5
New Transformer.XFMR-007511 phases=1 windings=2 buses=[bus_523 bus_523_sec] conns=[wye wye] kvs=[12.47 0.24] kvas=[75.0 75.0] %imped=2.5
New Transformer.XFMR-033845 phases=1 windings=2 buses=[bus_689 bus_689_sec] conns=[wye wye] kvs=[12.47 0.24] kvas=[100.0 100.0] %imped=2.5
New Transformer.XFMR-015986 phases=1 windings=2 buses=[bus_402 bus_402_sec] conns=[wye wye] kvs=[12.47 0.24] kvas=[15.0 15.0] %imped=2.5
New Transformer.XFMR-033197 phases=1 windings=2 buses=[bus_521 bus_521_sec] conns=[wye wye] kvs=[12.47 0.24] kvas=[15.0 15.0] %imped=2.5
New Transformer.XFMR-031307 phases=1 windings=2 buses=[bus_194 bus_194_sec] conns=[wye wye] kvs=[12.47 0.24] kvas=[10.0 10.0] %imped=2.5
New Transformer.XFMR-035931 phases=1 windings=2 buses=[bus_687 bus_687_sec] conns=[wye wye] kvs=[12.47 0.24] kvas=[10.0 10.0] %imped=2.5
New Transformer.XFMR-012262 phases=1 windings=2 buses=[bus_129 bus_129_sec] conns=[wye wye] kvs=[12.47 0.24] kvas=[75.0 75.0] %imped=2.5
New Transformer.XFMR-019850 phases=1 windings=2 buses=[bus_596 bus_596_sec] conns=[wye wye] kvs=[12.47 0.24] kvas=[167.0 167.0] %imped=2.5
New Transformer.XFMR-025512 phases=1 windings=2 buses=[bus_333 bus_333_sec] conns=[wye wye] kvs=[12.47 0.24] kvas=[50.0 50.0] %imped=2.5
New Transformer.XFMR-016913 phases=1 windings=2 buses=[bus_677 bus_677_sec] conns=[wye wye] kvs=[12.47 0.24] kvas=[50.0 50.0] %imped=2.5
New Transformer.XFMR-033990 phases=1 windings=2 buses=[bus_142 bus_142_sec] conns=[wye wye] kvs=[12.47 0.24] kvas=[25.0 25.0] %imped=2.5
New Transformer.XFMR-033730 phases=1 windings=2 buses=[bus_755 bus_755_sec] conns=[wye wye] kvs=[12.47 0.24] kvas=[75.0 75.0] %imped=2.5
New Transformer.XFMR-003646 phases=1 windings=2 buses=[bus_104 bus_104_sec] conns=[wye wye] kvs=[12.47 0.24] kvas=[37.5 37.5] %imped=2.5
New Transformer.XFMR-023674 phases=1 windings=2 buses=[bus_154 bus_154_sec] conns=[wye wye] kvs=[12.47 0.24] kvas=[75.0 75.0] %imped=2.5
New Transformer.XFMR-005639 phases=1 windings=2 buses=[bus_424 bus_424_sec] conns=[wye wye] kvs=[12.47 0.24] kvas=[250.0 250.0] %imped=2.5
New Transformer.XFMR-013029 phases=1 windings=2 buses=[bus_383 bus_383_sec] conns=[wye wye] kvs=[12.47 0.24] kvas=[250.0 250.0] %imped=2.5
New Transformer.XFMR-013015 phases=1 windings=2 buses=[bus_712 bus_712_sec] conns=[wye wye] kvs=[12.47 0.24] kvas=[10.0 10.0] %imped=2.5
New Transformer.XFMR-024594 phases=1 windings=2 buses=[bus_452 bus_452_sec] conns=[wye wye] kvs=[12.47 0.24] kvas=[10.0 10.0] %imped=2.5
...
