sisyphean-power-and-light/network/loads.dss
! Customer Loads

New Load.load_XFMR-000001 bus1=bus_XFMR-000001_sec phases=1 kv=0.24 kw=366.09 pf=0.95
New Load.load_XFMR-000002 bus1=bus_XFMR-000002_sec phases=1 kv=0.24 kw=105.49 pf=0.95
New Load.load_XFMR-000003 bus1=bus_XFMR-000003_sec phases=1 kv=0.24 kw=126.52 pf=0.95
New Load.load_XFMR-000004 bus1=bus_XFMR-000004_sec phases=1 kv=0.24 kw=26.60 pf=0.95
New Load.load_XFMR-000005 bus1=bus_XFMR-000005_sec phases=1 kv=0.24 kw=88.22 pf=0.95
New Load.load_XFMR-000006 bus1=bus_XFMR-000006_sec phases=1 kv=0.24 kw=11.89 pf=0.95
New Load.load_XFMR-000007 bus1=bus_XFMR-000007_sec phases=1 kv=0.24 kw=54.63 pf=0.95
New Load.load_XFMR-000008 bus1=bus_XFMR-000008_sec phases=1 kv=0.24 kw=122.88 pf=0.95
New Load.load_XFMR-000009 bus1=bus_XFMR-000009_sec phases=1 kv=0.24 kw=269.22 pf=0.95
New Load.load_XFMR-000010 bus1=bus_XFMR-000010_sec phases=1 kv=0.24 kw=317.56 pf=0.95
New Load.load_XFMR-000011 bus1=bus_XFMR-000011_sec phases=1 kv=0.24 kw=102.08 pf=0.95
New Load.load_XFMR-000012 bus1=bus_XFMR-000012_sec phases=1 kv=0.24 kw=194.51 pf=0.95
New Load.load_XFMR-000013 bus1=bus_XFMR-000013_sec phases=1 kv=0.24 kw=10.40 pf=0.95
New Load.load_XFMR-000014 bus1=bus_XFMR-000014_sec phases=1 kv=0.24 kw=124.72 pf=0.95
New Load.load_XFMR-000015 bus1=bus_XFMR-000015_sec phases=1 kv=0.24 kw=9.50 pf=0.95
New Load.load_XFMR-000016 bus1=bus_XFMR-000016_sec phases=1 kv=0.24 kw=189.20 pf=0.95
New Load.load_XFMR-000017 bus1=bus_XFMR-000017_sec phases=1 kv=0.24 kw=111.28 pf=0.95
New Load.load_XFMR-000018 bus1=bus_XFMR-000018_sec phases=1 kv=0.24 kw=5.19 pf=0.95
New Load.load_XFMR-000019 bus1=bus_XFMR-000019_sec phases=1 kv=0.24 kw=124.96 pf=0.95
New Load.load_XFMR-000020 bus1=bus_XFMR-000020_sec phases=1 kv=0.24 kw=10.34 pf=0.95
New Load.load_XFMR-000021 bus1=bus_XFMR-000021_sec phases=1 kv=0.24 kw=10.91 pf=0.95
New Load.load_XFMR-000022 bus1=bus_XFMR-000022_sec phases=1 kv=0.24 kw=303.18 pf=0.95
New Load.load_XFMR-000023 bus1=bus_XFMR-000023_sec phases=1 kv=0.24 kw=263.47 pf=0.95
New Load.load_XFMR-000024 bus1=bus_XFMR-000024_sec phases=1 kv=0.24 kw=76.79 pf=0.95
New Load.load_XFMR-000025 bus1=bus_XFMR-000025_sec phases=1 kv=0.24 kw=55.01 pf=0.95
New Load.load_XFMR-000026 bus1=bus_XFMR-000026_sec phases=1 kv=0.24 kw=185.94 pf=0.95
New Load.load_XFMR-000027 bus1=bus_XFMR-000027_sec phases=1 kv=0.24 kw=106.88 pf=0.95
New Load.load_XFMR-000028 bus1=bus_XFMR-000028_sec phases=1 kv=0.24 kw=85.69 pf=0.95
New Load.load_XFMR-000029 bus1=bus_XFMR-000029_sec phases=1 kv=0.24 kw=273.14 pf=0.95
New Load.load_XFMR-000030 bus1=bus_XFMR-000030_sec phases=1 kv=0.24 kw=10.57 pf=0.95
New Load.load_XFMR-000031 bus1=bus_XFMR-000031_sec phases=1 kv=0.24 kw=7.23 pf=0.95
New Load.load_XFMR-000032 bus1=bus_XFMR-000032_sec phases=1 kv=0.24 kw=263.15 pf=0.95
New Load.load_XFMR-000033 bus1=bus_XFMR-000033_sec phases=1 kv=0.24 kw=199.05 pf=0.95
New Load.load_XFMR-000034 bus1=bus_XFMR-000034_sec phases=1 kv=0.24 kw=102.06 pf=0.95
New Load.load_XFMR-000035 bus1=bus_XFMR-000035_sec phases=1 kv=0.24 kw=16.02 pf=0.95
New Load.load_XFMR-000036 bus1=bus_XFMR-000036_sec phases=1 kv=0.24 kw=27.84 pf=0.95
New Load.load_XFMR-000037 bus1=bus_XFMR-000037_sec phases=1 kv=0.24 kw=8.08 pf=0.95
New Load.load_XFMR-000038 bus1=bus_XFMR-000038_sec phases=1 kv=0.24 kw=9.64 pf=0.95
New Load.load_XFMR-000039 bus1=bus_XFMR-000039_sec phases=1 kv=0.24 kw=189.17 pf=0.95
New Load.load_XFMR-000040 bus1=bus_XFMR-000040_sec phases=1 kv=0.24 kw=233.41 pf=0.95
New Load.load_XFMR-000041 bus1=bus_XFMR-000041_sec phases=1 kv=0.24 kw=9.47 pf=0.95
New Load.load_XFMR-000042 bus1=bus_XFMR-000042_sec phases=1 kv=0.24 kw=187.45 pf=0.95
New Load.load_XFMR-000043 bus1=bus_XFMR-000043_sec phases=1 kv=0.24 kw=236.46 pf=0.95
New Load.load_XFMR-000044 bus1=bus_XFMR-000044_sec phases=1 kv=0.24 kw=29.69 pf=0.95
New Load.load_XFMR-000045 bus1=bus_XFMR-000045_sec phases=1 kv=0.24 kw=11.25 pf=0.95
New Load.load_XFMR-000046 bus1=bus_XFMR-000046_sec phases=1 kv=0.24 kw=11.12 pf=0.95
New Load.load_XFMR-000047 bus1=bus_XFMR-000047_sec phases=1 kv=0.24 kw=6.16 pf=0.95
New Load.load_XFMR-000048 bus1=bus_XFMR-000048_sec phases=1 kv=0.24 kw=195.30 pf=0.95
New Load.load_XFMR-000049 bus1=bus_XFMR-000049_sec phases=1 kv=0.24 kw=17.62 pf=0.95
New Load.load_XFMR-000050 bus1=bus_XFMR-000050_sec phases=1 kv=0.24 kw=40.64 pf=0.95
New Load.load_XFMR-000051 bus1=bus_XFMR-000051_sec phases=1 kv=0.24 kw=56.00 pf=0.95
New Load.load_XFMR-000052 bus1=bus_XFMR-000052_sec phases=1 kv=0.24 kw=83.87 pf=0.95
New Load.load_XFMR-000053 bus1=bus_XFMR-000053_sec phases=1 kv=0.24 kw=122.92 pf=0.95
New Load.load_XFMR-000054 bus1=bus_XFMR-000054_sec phases=1 kv=0.24 kw=116.81 pf=0.95
New Load.load_XFMR-000055 bus1=bus_XFMR-000055_sec phases=1 kv=0.24 kw=35.58 pf=0.95
New Load.load_XFMR-000056 bus1=bus_XFMR-000056_sec phases=1 kv=0.24 kw=11.01 pf=0.95
New Load.load_XFMR-000057 bus1=bus_XFMR-000057_sec phases=1 kv=0.24 kw=63.77 pf=0.95
New Load.load_XFMR-000058 bus1=bus_XFMR-000058_sec phases=1 kv=0.24 kw=50.30 pf=0.95
New Load.load_XFMR-000059 bus1=bus_XFMR-000059_sec phases=1 kv=0.24 kw=8.13 pf=0.95
New Load.load_XFMR-000060 bus1=bus_XFMR-000060_sec phases=1 kv=0.24 kw=133.59 pf=0.95
New Load.load_XFMR-000061 bus1=bus_XFMR-000061_sec phases=1 kv=0.24 kw=7.01 pf=0.95
New Load.load_XFMR-000062 bus1=bus_XFMR-000062_sec phases=1 kv=0.24 kw=24.05 pf=0.95
New Load.load_XFMR-000063 bus1=bus_XFMR-000063_sec phases=1 kv=0.24 kw=66.96 pf=0.95
New Load.load_XFMR-000064 bus1=bus_XFMR-000064_sec phases=1 kv=0.24 kw=36.47 pf=0.95
New Load.load_XFMR-000065 bus1=bus_XFMR-000065_sec phases=1 kv=0.24 kw=10.36 pf=0.95
New Load.load_XFMR-000066 bus1=bus_XFMR-000066_sec phases=1 kv=0.24 kw=49.96 pf=0.95
New Load.load_XFMR-000067 bus1=bus_XFMR-000067_sec phases=1 kv=0.24 kw=6.68 pf=0.95
New Load.load_XFMR-000068 bus1=bus_XFMR-000068_sec phases=1 kv=0.24 kw=98.73 pf=0.95
New Load.load_XFMR-000069 bus1=bus_XFMR-000069_sec phases=1 kv=0.24 kw=50.92 pf=0.95
New Load.load_XFMR-000070 bus1=bus_XFMR-000070_sec phases=1 kv=0.24 kw=6.31 pf=0.95
New Load.load_XFMR-000071 bus1=bus_XFMR-000071_sec phases=1 kv=0.24 kw=14.11 pf=0.95
New Load.load_XFMR-000072 bus1=bus_XFMR-000072_sec phases=1 kv=0.24 kw=15.56 pf=0.95
New Load.load_XFMR-000073 bus1=bus_XFMR-000073_sec phases=1 kv=0.24 kw=11.34 pf=0.95
New Load.load_XFMR-000074 bus1=bus_XFMR-000074_sec phases=1 kv=0.24 kw=189.87 pf=0.95
New Load.load_XFMR-000075 bus1=bus_XFMR-000075_sec phases=1 kv=0.24 kw=12.94 pf=0.95
New Load.load_XFMR-000076 bus1=bus_XFMR-000076_sec phases=1 kv=0.24 kw=58.44 pf=0.95
New Load.load_XFMR-000077 bus1=bus_XFMR-000077_sec phases=1 kv=0.24 kw=22.05 pf=0.95
New Load.load_XFMR-000078 bus1=bus_XFMR-000078_sec phases=1 kv=0.24 kw=52.39 pf=0.95
New Load.load_XFMR-000079 bus1=bus_XFMR-000079_sec phases=1 kv=0.24 kw=333.55 pf=0.95
New Load.load_XFMR-000080 bus1=bus_XFMR-000080_sec phases=1 kv=0.24 kw=367.58 pf=0.95
New Load.load_XFMR-000081 bus1=bus_XFMR-000081_sec phases=1 kv=0.24 kw=349.65 pf=0.95
New Load.load_XFMR-000082 bus1=bus_XFMR-000082_sec phases=1 kv=0.24 kw=103.86 pf=0.95
New Load.load_XFMR-000083 bus1=bus_XFMR-000083_sec phases=1 kv=0.24 kw=247.82 pf=0.95
New Load.load_XFMR-000084 bus1=bus_XFMR-000084_sec phases=1 kv=0.24 kw=91.87 pf=0.95
New Load.load_XFMR-000085 bus1=bus_XFMR-000085_sec phases=1 kv=0.24 kw=84.64 pf=0.95
New Load.load_XFMR-000086 bus1=bus_XFMR-000086_sec phases=1 kv=0.24 kw=88.01 pf=0.95
New Load.load_XFMR-000087 bus1=bus_XFMR-000087_sec phases=1 kv=0.24 kw=358.35 pf=0.95
New Load.load_XFMR-000088 bus1=bus_XFMR-000088_sec phases=1 kv=0.24 kw=31.93 pf=0.95
New Load.load_XFMR-000089 bus1=bus_XFMR-000089_sec phases=1 kv=0.24 kw=27.42 pf=0.95
New Load.load_XFMR-000090 bus1=bus_XFMR-000090_sec phases=1 kv=0.24 kw=325.16 pf=0.95
New Load.load_XFMR-000091 bus1=bus_XFMR-000091_sec phases=1 kv=0.24 kw=272.85 pf=0.95
New Load.load_XFMR-000092 bus1=bus_XFMR-000092_sec phases=1 kv=0.24 kw=53.17 pf=0.95
New Load.load_XFMR-000093 bus1=bus_XFMR-000093_sec phases=1 kv=0.24 kw=9.51 pf=0.95
New Load.load_XFMR-000094 bus1=bus_XFMR-000094_sec phases=1 kv=0.24 kw=15.36 pf=0.95
New Load.load_XFMR-000095 bus1=bus_XFMR-000095_sec phases=1 kv=0.24 kw=5.90 pf=0.95
New Load.load_XFMR-000096 bus1=bus_XFMR-000096_sec phases=1 kv=0.24 kw=115.08 pf=0.95
New Load.load_XFMR-000097 bus1=bus_XFMR-000097_sec phases=1 kv=0.24 kw=101.63 pf=0.95
New Load.load_XFMR-000098 bus1=bus_XFMR-000098_sec phases=1 kv=0.24 kw=175.26 pf=0.95
New Load.load_XFMR-000099 bus1=bus_XFMR-000099_sec phases=1 kv=0.24 kw=133.85 pf=0.95
New Load.load_XFMR-000100 bus1=bus_XFMR-000100_sec phases=1 kv=0.24 kw=78.86 pf=0.95
New Load.load_XFMR-000101 bus1=bus_XFMR-000101_sec phases=1 kv=0.24 kw=193.14 pf=0.95
New Load.load_XFMR-000102 bus1=bus_XFMR-000102_sec phases=1 kv=0.24 kw=354.96 pf=0.95
New Load.load_XFMR-000103 bus1=bus_XFMR-000103_sec phases=1 kv=0.24 kw=96.82 pf=0.95
New Load.load_XFMR-000104 bus1=bus_XFMR-000104_sec phases=1 kv=0.24 kw=11.86 pf=0.95
New Load.load_XFMR-000105 bus1=bus_XFMR-000105_sec phases=1 kv=0.24 kw=11.00 pf=0.95
New Load.load_XFMR-000106 bus1=bus_XFMR-000106_sec phases=1 kv=0.24 kw=17.88 pf=0.95
New Load.load_XFMR-000107 bus1=bus_XFMR-000107_sec phases=1 kv=0.24 kw=317.40 pf=0.95
New Load.load_XFMR-000108 bus1=bus_XFMR-000108_sec phases=1 kv=0.24 kw=58.17 pf=0.95
New Load.load_XFMR-000109 bus1=bus_XFMR-000109_sec phases=1 kv=0.24 kw=39.67 pf=0.95
New Load.load_XFMR-000110 bus1=bus_XFMR-000110_sec phases=1 kv=0.24 kw=19.27 pf=0.95
New Load.load_XFMR-000111 bus1=bus_XFMR-000111_sec phases=1 kv=0.24 kw=106.33 pf=0.95
New Load.load_XFMR-000112 bus1=bus_XFMR-000112_sec phases=1 kv=0.24 kw=28.04 pf=0.95
New Load.load_XFMR-000113 bus1=bus_XFMR-000113_sec phases=1 kv=0.24 kw=147.95 pf=0.95
New Load.load_XFMR-000114 bus1=bus_XFMR-000114_sec phases=1 kv=0.24 kw=336.88 pf=0.95
New Load.load_XFMR-000115 bus1=bus_XFMR-000115_sec phases=1 kv=0.24 kw=55.30 pf=0.95
New Load.load_XFMR-000116 bus1=bus_XFMR-000116_sec phases=1 kv=0.24 kw=11.35 pf=0.95
New Load.load_XFMR-000117 bus1=bus_XFMR-000117_sec phases=1 kv=0.24 kw=54.57 pf=0.95
New Load.load_XFMR-000118 bus1=bus_XFMR-000118_sec phases=1 kv=0.24 kw=17.90 pf=0.95
New Load.load_XFMR-000119 bus1=bus_XFMR-000119_sec phases=1 kv=0.24 kw=209.67 pf=0.95
New Load.load_XFMR-000120 bus1=bus_XFMR-000120_sec phases=1 kv=0.24 kw=172.05 pf=0.95
New Load.load_XFMR-000121 bus1=bus_XFMR-000121_sec phases=1 kv=0.24 kw=6.75 pf=0.95
New Load.load_XFMR-000122 bus1=bus_XFMR-000122_sec phases=1 kv=0.24 kw=231.42 pf=0.95
New Load.load_XFMR-000123 bus1=bus_XFMR-000123_sec phases=1 kv=0.24 kw=131.33 pf=0.95
New Load.load_XFMR-000124 bus1=bus_XFMR-000124_sec phases=1 kv=0.24 kw=15.62 pf=0.95
New Load.load_XFMR-000125 bus1=bus_XFMR-000125_sec phases=1 kv=0.24 kw=19.22 pf=0.95
New Load.load_XFMR-000126 bus1=bus_XFMR-000126_sec phases=1 kv=0.24 kw=108.25 pf=0.95
New Load.load_XFMR-000127 bus1=bus_XFMR-000127_sec phases=1 kv=0.24 kw=8.98 pf=0.95
New Load.load_XFMR-000128 bus1=bus_XFMR-000128_sec phases=1 kv=0.24 kw=40.75 pf=0.95
New Load.load_XFMR-000129 bus1=bus_XFMR-000129_sec phases=1 kv=0.24 kw=5.31 pf=0.95
New Load.load_XFMR-000130 bus1=bus_XFMR-000130_sec phases=1 kv=0.24 kw=33.81 pf=0.95
New Load.load_XFMR-000131 bus1=bus_XFMR-000131_sec phases=1 kv=0.24 kw=13.78 pf=0.95
New Load.load_XFMR-000132 bus1=bus_XFMR-000132_sec phases=1 kv=0.24 kw=19.44 pf=0.95
New Load.load_XFMR-000133 bus1=bus_XFMR-000133_sec phases=1 kv=0.24 kw=25.29 pf=0.95
New Load.load_XFMR-000134 bus1=bus_XFMR-000134_sec phases=1 kv=0.24 kw=15.10 pf=0.95
New Load.load_XFMR-000135 bus1=bus_XFMR-000135_sec phases=1 kv=0.24 kw=16.93 pf=0.95
New Load.load_XFMR-000136 bus1=bus_XFMR-000136_sec phases=1 kv=0.24 kw=253.42 pf=0.95
New Load.load_XFMR-000137 bus1=bus_XFMR-000137_sec phases=1 kv=0.24 kw=131.52 pf=0.95
New Load.load_XFMR-000138 bus1=bus_XFMR-000138_sec phases=1 kv=0.24 kw=32.23 pf=0.95
New Load.load_XFMR-000139 bus1=bus_XFMR-000139_sec phases=1 kv=0.24 kw=27.56 pf=0.95
New Load.load_XFMR-000140 bus1=bus_XFMR-000140_sec phases=1 kv=0.24 kw=52.48 pf=0.95
New Load.load_XFMR-000141 bus1=bus_XFMR-000141_sec phases=1 kv=0.24 kw=32.30 pf=0.95
New Load.load_XFMR-000142 bus1=bus_XFMR-000142_sec phases=1 kv=0.24 kw=24.27 pf=0.95
New Load.load_XFMR-000143 bus1=bus_XFMR-000143_sec phases=1 kv=0.24 kw=130.49 pf=0.95
New Load.load_XFMR-000144 bus1=bus_XFMR-000144_sec phases=1 kv=0.24 kw=167.88 pf=0.95
New Load.load_XFMR-000145 bus1=bus_XFMR-000145_sec phases=1 kv=0.24 kw=213.80 pf=0.95
New Load.load_XFMR-000146 bus1=bus_XFMR-000146_sec phases=1 kv=0.24 kw=29.00 pf=0.95
New Load.load_XFMR-000147 bus1=bus_XFMR-000147_sec phases=1 kv=0.24 kw=44.96 pf=0.95
New Load.load_XFMR-000148 bus1=bus_XFMR-000148_sec phases=1 kv=0.24 kw=218.52 pf=0.95
New Load.load_XFMR-000149 bus1=bus_XFMR-000149_sec phases=1 kv=0.24 kw=157.92 pf=0.95
New Load.load_XFMR-000150 bus1=bus_XFMR-000150_sec phases=1 kv=0.24 kw=5.06 pf=0.95
New Load.load_XFMR-000151 bus1=bus_XFMR-000151_sec phases=1 kv=0.24 kw=56.09 pf=0.95
New Load.load_XFMR-000152 bus1=bus_XFMR-000152_sec phases=1 kv=0.24 kw=256.03 pf=0.95
New Load.load_XFMR-000153 bus1=bus_XFMR-000153_sec phases=1 kv=0.24 kw=271.04 pf=0.95
New Load.load_XFMR-000154 bus1=bus_XFMR-000154_sec phases=1 kv=0.24 kw=221.85 pf=0.95
New Load.load_XFMR-000155 bus1=bus_XFMR-000155_sec phases=1 kv=0.24 kw=13.31 pf=0.95
New Load.load_XFMR-000156 bus1=bus_XFMR-000156_sec phases=1 kv=0.24 kw=26.31 pf=0.95
New Load.load_XFMR-000157 bus1=bus_XFMR-000157_sec phases=1 kv=0.24 kw=146.09 pf=0.95
New Load.load_XFMR-000158 bus1=bus_XFMR-000158_sec phases=1 kv=0.24 kw=348.91 pf=0.95
New Load.load_XFMR-000159 bus1=bus_XFMR-000159_sec phases=1 kv=0.24 kw=359.05 pf=0.95
New Load.load_XFMR-000160 bus1=bus_XFMR-000160_sec phases=1 kv=0.24 kw=27.40 pf=0.95
New Load.load_XFMR-000161 bus1=bus_XFMR-000161_sec phases=1 kv=0.24 kw=133.08 pf=0.95
New Load.load_XFMR-000162 bus1=bus_XFMR-000162_sec phases=1 kv=0.24 kw=58.11 pf=0.95
New Load.load_XFMR-000163 bus1=bus_XFMR-000163_sec phases=1 kv=0.24 kw=95.03 pf=0.95
New Load.load_XFMR-000164 bus1=bus_XFMR-000164_sec phases=1 kv=0.24 kw=12.78 pf=0.95
New Load.load_XFMR-000165 bus1=bus_XFMR-000165_sec phases=1 kv=0.24 kw=6.66 pf=0.95
New Load.load_XFMR-000166 bus1=bus_XFMR-000166_sec phases=1 kv=0.24 kw=6.11 pf=0.95
New Load.load_XFMR-000167 bus1=bus_XFMR-000167_sec phases=1 kv=0.24 kw=374.47 pf=0.95
New Load.load_XFMR-000168 bus1=bus_XFMR-000168_sec phases=1 kv=0.24 kw=371.24 pf=0.95
New Load.load_XFMR-000169 bus1=bus_XFMR-000169_sec phases=1 kv=0.24 kw=59.51 pf=0.95
New Load.load_XFMR-000170 bus1=bus_XFMR-000170_sec phases=1 kv=0.24 kw=7.86 pf=0.95
New Load.load_XFMR-000171 bus1=bus_XFMR-000171_sec phases=1 kv=0.24 kw=98.07 pf=0.95
New Load.load_XFMR-000172 bus1=bus_XFMR-000172_sec phases=1 kv=0.24 kw=49.09 pf=0.95
New Load.load_XFMR-000173 bus1=bus_XFMR-000173_sec phases=1 kv=0.24 kw=28.84 pf=0.95
New Load.load_XFMR-000174 bus1=bus_XFMR-000174_sec phases=1 kv=0.24 kw=195.20 pf=0.95
New Load.load_XFMR-000175 bus1=bus_XFMR-000175_sec phases=1 kv=0.24 kw=41.20 pf=0.95
New Load.load_XFMR-000176 bus1=bus_XFMR-000176_sec phases=1 kv=0.24 kw=25.67 pf=0.95
New Load.load_XFMR-000177 bus1=bus_XFMR-000177_sec phases=1 kv=0.24 kw=105.30 pf=0.95
New Load.load_XFMR-000178 bus1=bus_XFMR-000178_sec phases=1 kv=0.24 kw=11.97 pf=0.95
New Load.load_XFMR-000179 bus1=bus_XFMR-000179_sec phases=1 kv=0.24 kw=19.19 pf=0.95
New Load.load_XFMR-000180 bus1=bus_XFMR-000180_sec phases=1 kv=0.24 kw=27.17 pf=0.95
New Load.load_XFMR-000181 bus1=bus_XFMR-000181_sec phases=1 kv=0.24 kw=7.67 pf=0.95
New Load.load_XFMR-000182 bus1=bus_XFMR-000182_sec phases=1 kv=0.24 kw=11.52 pf=0.95
New Load.load_XFMR-000183 bus1=bus_XFMR-000183_sec phases=1 kv=0.24 kw=109.49 pf=0.95
New Load.load_XFMR-000184 bus1=bus_XFMR-000184_sec phases=1 kv=0.24 kw=5.95 pf=0.95
New Load.load_XFMR-000185 bus1=bus_XFMR-000185_sec phases=1 kv=0.24 kw=54.87 pf=0.95
New Load.load_XFMR-000186 bus1=bus_XFMR-000186_sec phases=1 kv=0.24 kw=6.98 pf=0.95
New Load.load_XFMR-000187 bus1=bus_XFMR-000187_sec phases=1 kv=0.24 kw=45.91 pf=0.95
New Load.load_XFMR-000188 bus1=bus_XFMR-000188_sec phases=1 kv=0.24 kw=264.17 pf=0.95
New Load.load_XFMR-000189 bus1=bus_XFMR-000189_sec phases=1 kv=0.24 kw=27.15 pf=0.95
New Load.load_XFMR-000190 bus1=bus_XFMR-000190_sec phases=1 kv=0.24 kw=144.68 pf=0.95
New Load.load_XFMR-000191 bus1=bus_XFMR-000191_sec phases=1 kv=0.24 kw=7.81 pf=0.95
New Load.load_XFMR-000192 bus1=bus_XFMR-000192_sec phases=1 kv=0.24 kw=95.57 pf=0.95
New Load.load_XFMR-000193 bus1=bus_XFMR-000193_sec phases=1 kv=0.24 kw=5.37 pf=0.95
New Load.load_XFMR-000194 bus1=bus_XFMR-000194_sec phases=1 kv=0.24 kw=28.10 pf=0.95
New Load.load_XFMR-000195 bus1=bus_XFMR-000195_sec phases=1 kv=0.24 kw=136.50 pf=0.95
New Load.load_XFMR-000196 bus1=bus_XFMR-000196_sec phases=1 kv=0.24 kw=276.89 pf=0.95
New Load.load_XFMR-000197 bus1=bus_XFMR-000197_sec phases=1 kv=0.24 kw=67.98 pf=0.95
New Load.load_XFMR-000198 bus1=bus_XFMR-000198_sec phases=1 kv=0.24 kw=7.62 pf=0.95
New Load.load_XFMR-000199 bus1=bus_XFMR-000199_sec phases=1 kv=0.24 kw=20.96 pf=0.95
New Load.load_XFMR-000200 bus1=bus_XFMR-000200_sec phases=1 kv=0.24 kw=5.93 pf=0.95
...
