sisyphean-power-and-light/network/capacitors.dss
! Capacitor Banks

New Capacitor.cap_FDR-0001 bus1=bus_JCT-FDR-0001-001 phases=3 kvar=300 kv=12.47
New Capacitor.cap_FDR-0002 bus1=bus_JCT-FDR-0001-002 phases=3 kvar=300 kv=12.47
New Capacitor.cap_FDR-0003 bus1=bus_JCT-FDR-0001-003 phases=3 kvar=300 kv=12.47
New Capacitor.cap_FDR-0004 bus1=bus_JCT-FDR-0001-004 phases=3 kvar=600 kv=12.47
New Capacitor.cap_FDR-0005 bus1=bus_JCT-FDR-0001-005 phases=3 kvar=600 kv=12.47
